
.MODEL 2N3686 NJF (
+   VTO =  -0.957
+   BETA =  0.0007237
+   LAMBDA =  0.002333
+   RD =  1
+   RS =  1
+   IS =  1.145e-13
+   CGD =  2e-12
+   CGS =  2.083e-12
+   PB =  0.5
+   B =  1
+   KF =  0
+   AF =  1
+   FC =  0.5
+   TNOM =  27
)

.MODEL uA723_NJF NJF (
+   VTO =  -2
+   BETA =  0.003
+   LAMBDA =  0
+   RD =  0
+   RS =  0
+   IS =  1e-14
+   CGD =  0
+   CGS =  0
+   PB =  1
+   B =  1
+   KF =  0
+   AF =  1
+   FC =  0.5
+   TNOM =  27
)
