***************************************************
*ELECTRONICS WORKBENCH MODEL FILE                 * 
*MODELS GENERATED BY: A.MICHEAL/S.IRELAND/R.TALOS *
*(c) 1996 INTERACTIVE IMAGE TECHNOLOGIES LTD.     * 
*TORONTO, ONTARIO (416)977-5550.                  *
***************************************************
.MODEL BF244A NJF (
+   VTO =  -1.7
+   BETA =  0.00135
+   LAMBDA =  0.0085
+   RD =  1
+   RS =  1
+   IS =  5.3389e-11
+   CGD =  3.2833e-12
+   CGS =  3.2527e-12
+   PB =  1
+   B =  1
+   KF =  1e-18
+   AF =  1
+   FC =  0.5
+   TNOM =  27
)

.MODEL BF244B NJF (
+   VTO =  -1.5
+   BETA =  0.0025
+   LAMBDA =  0.0079
+   RD =  1
+   RS =  1
+   IS =  5.3389e-11
+   CGD =  3.2833e-12
+   CGS =  3.2527e-12
+   PB =  1
+   B =  1
+   KF =  1e-18
+   AF =  1
+   FC =  0.5
+   TNOM =  27
)

.MODEL BF245A NJF (
+   VTO =  -1.35
+   BETA =  0.00134
+   LAMBDA =  0.0082
+   RD =  1
+   RS =  1
+   IS =  5.3389e-11
+   CGD =  3.2833e-12
+   CGS =  3.2527e-12
+   PB =  1
+   B =  1
+   KF =  1e-18
+   AF =  1
+   FC =  0.5
+   TNOM =  27
)

.MODEL BF245B NJF (
+   VTO =  -1.53
+   BETA =  0.0026
+   LAMBDA =  0.0074
+   RD =  1
+   RS =  1
+   IS =  5.3389e-11
+   CGD =  3.2833e-12
+   CGS =  3.2527e-12
+   PB =  1
+   B =  1
+   KF =  1e-18
+   AF =  1
+   FC =  0.5
+   TNOM =  27
)

.MODEL BF245C NJF (
+   VTO =  -2.15
+   BETA =  0.0047
+   LAMBDA =  0.0077
+   RD =  1
+   RS =  1
+   IS =  5.3389e-11
+   CGD =  3.2833e-12
+   CGS =  3.2527e-12
+   PB =  1
+   B =  1
+   KF =  1e-18
+   AF =  1
+   FC =  0.5
+   TNOM =  27
)

.MODEL BF246A NJF (
+   VTO =  -2.7
+   BETA =  0.015
+   LAMBDA =  0.0059
+   RD =  1
+   RS =  1
+   IS =  6.0975e-11
+   CGD =  1.3586e-11
+   CGS =  3.7703e-12
+   PB =  1
+   B =  1
+   KF =  1e-18
+   AF =  1
+   FC =  0.5
+   TNOM =  27
)

.MODEL BF246B NJF (
+   VTO =  -3.55
+   BETA =  0.0275
+   LAMBDA =  0.0062
+   RD =  1
+   RS =  1
+   IS =  6.0975e-11
+   CGD =  1.3586e-11
+   CGS =  3.7703e-12
+   PB =  1
+   B =  1
+   KF =  1e-18
+   AF =  1
+   FC =  0.5
+   TNOM =  27
)

.MODEL BF247B NJF (
+   VTO =  -3.825
+   BETA =  0.0277
+   LAMBDA =  0.0068
+   RD =  1
+   RS =  1
+   IS =  6.0975e-11
+   CGD =  1.3586e-11
+   CGS =  3.7703e-12
+   PB =  1
+   B =  1
+   KF =  1e-18
+   AF =  1
+   FC =  0.5
+   TNOM =  27
)

.MODEL BF256B NJF (
+   VTO =  -2.55
+   BETA =  0.003
+   LAMBDA =  0.0073
+   RD =  1
+   RS =  1
+   IS =  5.3389e-11
+   CGD =  3.2833e-12
+   CGS =  1e-12
+   PB =  1
+   B =  1
+   KF =  1e-18
+   AF =  1
+   FC =  0.5
+   TNOM =  27
)

.MODEL BF256C NJF (
+   VTO =  -1.44
+   BETA =  0.0025
+   LAMBDA =  0.0065
+   RD =  1
+   RS =  1
+   IS =  5.3389e-11
+   CGD =  3.2833e-12
+   CGS =  1e-12
+   PB =  1
+   B =  1
+   KF =  1e-18
+   AF =  1
+   FC =  0.5
+   TNOM =  27
)

.MODEL BFR30LT1 NJF (
+   VTO =  -2.055
+   BETA =  0.00186
+   LAMBDA =  0.00775
+   RD =  1
+   RS =  1
+   IS =  2.9268e-12
+   CGD =  5.377e-12
+   CGS =  5.0646e-12
+   PB =  1
+   B =  1
+   KF =  1e-18
+   AF =  1
+   FC =  0.5
+   TNOM =  27
)

.MODEL J300 NJF (
+   VTO =  -2.5
+   BETA =  0.004
+   LAMBDA =  0.0055
+   RD =  1
+   RS =  1
+   IS =  6.0975e-09
+   CGD =  6.4734e-12
+   CGS =  8.061e-12
+   PB =  1
+   B =  1
+   KF =  1e-18
+   AF =  1
+   FC =  0.5
+   TNOM =  27
)

.MODEL J304 NJF (
+   VTO =  -2.5
+   BETA =  0.00271
+   LAMBDA =  0.00575
+   RD =  1
+   RS =  1
+   IS =  1e-14
+   CGD =  1e-12
+   CGS =  1e-12
+   PB =  1
+   B =  1
+   KF =  1e-18
+   AF =  1
+   FC =  0.5
+   TNOM =  27
)

.MODEL J308 NJF (
+   VTO =  -3.35
+   BETA =  0.0077401
+   LAMBDA =  0.005
+   RD =  1
+   RS =  1
+   IS =  1.2195e-11
+   CGD =  1e-12
+   CGS =  1e-12
+   PB =  1
+   B =  1
+   KF =  1.9443e-16
+   AF =  1
+   FC =  0.5
+   TNOM =  27
)

.MODEL J309 NJF (
+   VTO =  -2.211
+   BETA =  0.0051401
+   LAMBDA =  0.0053
+   RD =  1
+   RS =  1
+   IS =  1.2195e-11
+   CGD =  1e-12
+   CGS =  1e-12
+   PB =  1
+   B =  1
+   KF =  1.9443e-16
+   AF =  1
+   FC =  0.5
+   TNOM =  27
)

.MODEL J310 NJF (
+   VTO =  -4.1
+   BETA =  0.010401
+   LAMBDA =  0.0052
+   RD =  1
+   RS =  1
+   IS =  1.2195e-11
+   CGD =  1e-12
+   CGS =  1e-12
+   PB =  1
+   B =  1
+   KF =  1.9443e-16
+   AF =  1
+   FC =  0.5
+   TNOM =  27
)

.MODEL MMBF17 NJF (
+   VTO =  -2
+   BETA =  0.0015
+   LAMBDA =  0.00354
+   RD =  1
+   RS =  1
+   IS =  1e-14
+   CGD =  1e-12
+   CGS =  1e-12
+   PB =  1
+   B =  1
+   KF =  1e-18
+   AF =  1
+   FC =  0.5
+   TNOM =  27
)

.MODEL MMBF170 NJF (
+   VTO =  -1.2633
+   BETA =  0.0017
+   LAMBDA =  1e-06
+   RD =  1
+   RS =  1
+   IS =  1e-14
+   CGD =  1e-12
+   CGS =  5.9698e-11
+   PB =  1
+   B =  1
+   KF =  1e-18
+   AF =  1
+   FC =  0.5
+   TNOM =  27
)

.MODEL MMBF4391 NJF (
+   VTO =  -4.6
+   BETA =  0.02779
+   LAMBDA =  0.00595
+   RD =  1
+   RS =  1
+   IS =  1e-14
+   CGD =  1.4e-11
+   CGS =  1.05e-11
+   PB =  1
+   B =  1
+   KF =  1e-18
+   AF =  1
+   FC =  0.5
+   TNOM =  27
)

.MODEL MMBF4392 NJF (
+   VTO =  -3.5
+   BETA =  0.00133
+   LAMBDA =  0.00601
+   RD =  1
+   RS =  1
+   IS =  1e-14
+   CGD =  1.4e-11
+   CGS =  1.05e-11
+   PB =  1
+   B =  1
+   KF =  1e-18
+   AF =  1
+   FC =  0.5
+   TNOM =  27
)

.MODEL MMBF4393 NJF (
+   VTO =  -1.9
+   BETA =  0.0036
+   LAMBDA =  0.006325
+   RD =  1
+   RS =  1
+   IS =  1e-14
+   CGD =  1.4e-11
+   CGS =  1.05e-11
+   PB =  1
+   B =  1
+   KF =  1e-18
+   AF =  1
+   FC =  0.5
+   TNOM =  27
)

.MODEL MMBF4416 NJF (
+   VTO =  -5.4866
+   BETA =  0.0004
+   LAMBDA =  0.0050547
+   RD =  1
+   RS =  1
+   IS =  1.0678e-11
+   CGD =  3.2e-12
+   CGS =  3.2e-12
+   PB =  1
+   B =  1
+   KF =  1e-18
+   AF =  1
+   FC =  0.5
+   TNOM =  27
)

.MODEL MMBF4856 NJF (
+   VTO =  -3.5
+   BETA =  0.02
+   LAMBDA =  0.00707
+   RD =  1
+   RS =  1
+   IS =  1e-14
+   CGD =  1e-12
+   CGS =  1e-12
+   PB =  1
+   B =  1
+   KF =  1e-18
+   AF =  1
+   FC =  0.5
+   TNOM =  27
)

.MODEL MMBF4860 NJF (
+   VTO =  -3.12
+   BETA =  0.018
+   LAMBDA =  0.0095
+   RD =  1
+   RS =  1
+   IS =  0.0007317
+   CGD =  2.6533e-11
+   CGS =  3.3166e-11
+   PB =  1
+   B =  1
+   KF =  1e-18
+   AF =  1
+   FC =  0.5
+   TNOM =  27
)

.MODEL MMBF48860 NJF (
+   VTO =  -2
+   BETA =  0.007
+   LAMBDA =  1e-06
+   RD =  1
+   RS =  1
+   IS =  1e-14
+   CGD =  1e-12
+   CGS =  1e-12
+   PB =  1
+   B =  1
+   KF =  1e-18
+   AF =  1
+   FC =  0.5
+   TNOM =  27
)

.MODEL MMBF5457 NJF (
+   VTO =  -3.5001
+   BETA =  0.0004
+   LAMBDA =  0.0084
+   RD =  1
+   RS =  1
+   IS =  1.2195e-11
+   CGD =  6e-12
+   CGS =  3e-12
+   PB =  1
+   B =  1
+   KF =  1e-18
+   AF =  1
+   FC =  0.5
+   TNOM =  27
)

.MODEL MMBF5459 NJF (
+   VTO =  -3.36
+   BETA =  0.0027
+   LAMBDA =  0.00855
+   RD =  1
+   RS =  1
+   IS =  1e-14
+   CGD =  1.2e-11
+   CGS =  4e-12
+   PB =  1
+   B =  1
+   KF =  1e-18
+   AF =  1
+   FC =  0.5
+   TNOM =  27
)

.MODEL MMBF546LT1 NJF (
+   VTO =  -1.5
+   BETA =  0.0012
+   LAMBDA =  0.0075
+   RD =  1
+   RS =  1
+   IS =  1e-14
+   CGD =  1e-12
+   CGS =  1e-12
+   PB =  1
+   B =  1
+   KF =  1e-18
+   AF =  1
+   FC =  0.5
+   TNOM =  27
)

.MODEL MMBF5484 NJF (
+   VTO =  -1.5
+   BETA =  0.00085
+   LAMBDA =  0.01125
+   RD =  1
+   RS =  1
+   IS =  1.0678e-11
+   CGD =  4e-12
+   CGS =  4e-12
+   PB =  1
+   B =  1
+   KF =  1e-18
+   AF =  1
+   FC =  0.5
+   TNOM =  27
)

.MODEL MMBF5486LT1 NJF (
+   VTO =  -1.5
+   BETA =  0.0036
+   LAMBDA =  0.00915
+   RD =  1
+   RS =  1
+   IS =  1e-14
+   CGD =  4e-12
+   CGS =  4e-12
+   PB =  1
+   B =  1
+   KF =  1e-18
+   AF =  1
+   FC =  0.5
+   TNOM =  27
)

.MODEL MMBFJ309LT1 NJF (
+   VTO =  -1.6
+   BETA =  0.0049
+   LAMBDA =  0.0065
+   RD =  1
+   RS =  1
+   IS =  1.2195e-11
+   CGD =  8.2916e-12
+   CGS =  8.2916e-12
+   PB =  1
+   B =  1
+   KF =  3.763e-18
+   AF =  1
+   FC =  0.5
+   TNOM =  27
)

.MODEL MMBFJ310LT1 NJF (
+   VTO =  -1.2
+   BETA =  0.009
+   LAMBDA =  0.006
+   RD =  1
+   RS =  1
+   IS =  1.2195e-11
+   CGD =  8.2916e-12
+   CGS =  8.2916e-12
+   PB =  1
+   B =  1
+   KF =  3.763e-18
+   AF =  1
+   FC =  0.5
+   TNOM =  27
)

.MODEL MMBFU310LT1 NJF (
+   VTO =  -2.12
+   BETA =  0.0105
+   LAMBDA =  0.0063
+   RD =  1
+   RS =  1
+   IS =  1e-14
+   CGD =  1e-12
+   CGS =  1e-12
+   PB =  1
+   B =  1
+   KF =  1e-18
+   AF =  1
+   FC =  0.5
+   TNOM =  27
)

.MODEL MPF102 NJF (
+   VTO =  -3
+   BETA =  0.0032401
+   LAMBDA =  0.005
+   RD =  1
+   RS =  1
+   IS =  1.2195e-11
+   CGD =  1e-12
+   CGS =  1e-12
+   PB =  1
+   B =  1
+   KF =  1.9443e-16
+   AF =  1
+   FC =  0.5
+   TNOM =  27
)

.MODEL MPF3821 NJF (
+   VTO =  -1.8
+   BETA =  0.00045
+   LAMBDA =  0.007
+   RD =  1
+   RS =  1
+   IS =  1e-14
+   CGD =  1.2e-11
+   CGS =  3e-12
+   PB =  1
+   B =  1
+   KF =  1e-18
+   AF =  1
+   FC =  0.5
+   TNOM =  27
)

.MODEL MPF3822 NJF (
+   VTO =  -2.6
+   BETA =  0.00135
+   LAMBDA =  0.0068
+   RD =  1
+   RS =  1
+   IS =  1e-14
+   CGD =  1.2e-11
+   CGS =  3e-12
+   PB =  1
+   B =  1
+   KF =  1e-18
+   AF =  1
+   FC =  0.5
+   TNOM =  27
)

.MODEL MPF4392 NJF (
+   VTO =  -5.5
+   BETA =  0.0117
+   LAMBDA =  0.0056
+   RD =  1
+   RS =  1
+   IS =  1.2195e-11
+   CGD =  9.0139e-12
+   CGS =  1.4986e-11
+   PB =  1
+   B =  1
+   KF =  1e-18
+   AF =  1
+   FC =  0.5
+   TNOM =  27
)

.MODEL MPF4393 NJF (
+   VTO =  -4.5
+   BETA =  0.00465
+   LAMBDA =  0.00625
+   RD =  1
+   RS =  1
+   IS =  1.2195e-11
+   CGD =  9.0139e-12
+   CGS =  1.4986e-11
+   PB =  1
+   B =  1
+   KF =  1e-18
+   AF =  1
+   FC =  0.5
+   TNOM =  27
)

.MODEL MPF4856 NJF (
+   VTO =  -3
+   BETA =  0.03
+   LAMBDA =  0.008
+   RD =  1
+   RS =  1
+   IS =  2.6695e-12
+   CGD =  2.6533e-11
+   CGS =  3.3166e-11
+   PB =  1
+   B =  1
+   KF =  1e-18
+   AF =  1
+   FC =  0.5
+   TNOM =  27
)

.MODEL MPF4857 NJF (
+   VTO =  -4
+   BETA =  0.0204
+   LAMBDA =  0.009
+   RD =  1
+   RS =  1
+   IS =  2.6695e-12
+   CGD =  2.6533e-11
+   CGS =  3.3166e-11
+   PB =  1
+   B =  1
+   KF =  1e-18
+   AF =  1
+   FC =  0.5
+   TNOM =  27
)

.MODEL MPF4858 NJF (
+   VTO =  -2.6
+   BETA =  0.011
+   LAMBDA =  0.01125
+   RD =  1
+   RS =  1
+   IS =  2.6695e-12
+   CGD =  2.6533e-11
+   CGS =  3.3166e-11
+   PB =  1
+   B =  1
+   KF =  1e-18
+   AF =  1
+   FC =  0.5
+   TNOM =  27
)

.MODEL MPF4859 NJF (
+   VTO =  -1.8
+   BETA =  0.025
+   LAMBDA =  0.0112
+   RD =  1
+   RS =  1
+   IS =  2.6695e-12
+   CGD =  2.6533e-11
+   CGS =  3.3166e-11
+   PB =  1
+   B =  1
+   KF =  1e-18
+   AF =  1
+   FC =  0.5
+   TNOM =  27
)

.MODEL MPF4860 NJF (
+   VTO =  -3.21
+   BETA =  0.0168
+   LAMBDA =  0.01
+   RD =  1
+   RS =  1
+   IS =  2.6695e-12
+   CGD =  2.6533e-11
+   CGS =  3.3166e-11
+   PB =  1
+   B =  1
+   KF =  1e-18
+   AF =  1
+   FC =  0.5
+   TNOM =  27
)

.MODEL MPF4861 NJF (
+   VTO =  -1.75
+   BETA =  0.0111
+   LAMBDA =  0.0095
+   RD =  1
+   RS =  1
+   IS =  2.6695e-12
+   CGD =  2.6533e-11
+   CGS =  3.3166e-11
+   PB =  1
+   B =  1
+   KF =  1e-18
+   AF =  1
+   FC =  0.5
+   TNOM =  27
)
