***********************************************
*ELECTRONICS WORKBENCH MODEL FILE             * 
*MODELS GENERATED BY: R.TALOS                 *
*(c) 1996 INTERACTIVE IMAGE TECHNOLOGIES LTD. * 
*TORONTO, ONTARIO (416)977-5550.              *
***********************************************
.MODEL J2N3369 NJF (
+   VTO =  -1.65
+   BETA =  0.0564
+   LAMBDA =  0.006
+   RD =  1
+   RS =  1
+   IS =  4.4109e-11
+   CGD =  3e-12
+   CGS =  2e-11
+   PB =  1
+   B =  1
+   KF =  2.2781e+06
+   AF =  1
+   FC =  0.5
+   TNOM =  27
)

.MODEL J2N3370 NJF (
+   VTO =  -1.6
+   BETA =  0.056
+   LAMBDA =  0.005
+   RD =  1
+   RS =  1
+   IS =  4.4109e-14
+   CGD =  1e-12
+   CGS =  1.9667e-11
+   PB =  1
+   B =  1
+   KF =  3.9953e+07
+   AF =  1
+   FC =  0.5
+   TNOM =  27
)

.MODEL J2N3460 NJF (
+   VTO =  -1.65
+   BETA =  0.05
+   LAMBDA =  0.01
+   RD =  1
+   RS =  1
+   IS =  2.2055e-12
+   CGD =  2.7839e-11
+   CGS =  1e-12
+   PB =  1
+   B =  1
+   KF =  1.896e+07
+   AF =  1
+   FC =  0.5
+   TNOM =  27
)

.MODEL J2N3819 NJF (
+   VTO =  -2.9339
+   BETA =  0.0022636
+   LAMBDA =  0.0165
+   RD =  1
+   RS =  1
+   IS =  2.439e-11
+   CGD =  1.6e-11
+   CGS =  4e-12
+   PB =  1
+   B =  1
+   KF =  5.0356e-17
+   AF =  1
+   FC =  0.5
+   TNOM =  27
)

.MODEL J2N3968 NJF (
+   VTO =  -1.982
+   BETA =  0.0018043
+   LAMBDA =  0.01
+   RD =  1
+   RS =  1
+   IS =  1e-14
+   CGD =  6e-12
+   CGS =  4.5e-12
+   PB =  1
+   B =  1
+   KF =  6.5362e-17
+   AF =  1
+   FC =  0.5
+   TNOM =  27
)

.MODEL J2N3968A NJF (
+   VTO =  -1.982
+   BETA =  0.0018043
+   LAMBDA =  0.01
+   RD =  1
+   RS =  1
+   IS =  1e-14
+   CGD =  6e-12
+   CGS =  4.5e-12
+   PB =  1
+   B =  1
+   KF =  6.5362e-17
+   AF =  1
+   FC =  0.5
+   TNOM =  27
)

.MODEL J2N3969 NJF (
+   VTO =  -2.2
+   BETA =  0.02
+   LAMBDA =  0.005
+   RD =  1
+   RS =  1
+   IS =  1.0678e-12
+   CGD =  5.9573e-12
+   CGS =  3.7e-12
+   PB =  1
+   B =  1
+   KF =  2.7843e+07
+   AF =  1
+   FC =  0.5
+   TNOM =  27
)

.MODEL J2N4224 NJF (
+   VTO =  -3.1
+   BETA =  0.011
+   LAMBDA =  0.00512
+   RD =  1
+   RS =  1
+   IS =  5.3389e-12
+   CGD =  8e-12
+   CGS =  1e-12
+   PB =  1
+   B =  1
+   KF =  1e-18
+   AF =  1
+   FC =  0.5
+   TNOM =  27
)

.MODEL J2N4885 NJF (
+   VTO =  -2.4
+   BETA =  0.0085
+   LAMBDA =  0.005
+   RD =  1
+   RS =  1
+   IS =  1e-14
+   CGD =  1e-12
+   CGS =  1e-12
+   PB =  1
+   B =  1
+   KF =  1e-18
+   AF =  1
+   FC =  0.5
+   TNOM =  27
)

.MODEL J2N5104 NJF (
+   VTO =  -2.3
+   BETA =  0.0025
+   LAMBDA =  0.012
+   RD =  1
+   RS =  1
+   IS =  1.0678e-12
+   CGD =  8e-12
+   CGS =  3e-12
+   PB =  1
+   B =  1
+   KF =  986490
+   AF =  1
+   FC =  0.5
+   TNOM =  27
)

.MODEL J2N5198 NJF (
+   VTO =  -2.3
+   BETA =  0.0078517
+   LAMBDA =  0.0099
+   RD =  1
+   RS =  1
+   IS =  2.2055e-13
+   CGD =  8.3905e-12
+   CGS =  0
+   PB =  1
+   B =  1
+   KF =  1.2322e-15
+   AF =  1
+   FC =  0.5
+   TNOM =  27
)

.MODEL J2N5245 NJF (
+   VTO =  -3.6645
+   BETA =  0.0015743
+   LAMBDA =  0.009
+   RD =  1
+   RS =  1
+   IS =  1.0678e-11
+   CGD =  8e-12
+   CGS =  0.999
+   PB =  1
+   B =  1
+   KF =  1e-18
+   AF =  1
+   FC =  0.5
+   TNOM =  27
)

.MODEL J2N5246 NJF (
+   VTO =  -2
+   BETA =  0.009
+   LAMBDA =  0.006
+   RD =  1
+   RS =  1
+   IS =  1.0678e-11
+   CGD =  4e-12
+   CGS =  3.5e-12
+   PB =  1
+   B =  1
+   KF =  1e-18
+   AF =  1
+   FC =  0.5
+   TNOM =  27
)

.MODEL J2N5247 NJF (
+   VTO =  -3.9958
+   BETA =  0.0017017
+   LAMBDA =  0.009
+   RD =  1
+   RS =  1
+   IS =  1.0678e-11
+   CGD =  4e-12
+   CGS =  3.5e-12
+   PB =  1
+   B =  1
+   KF =  1.1155e-16
+   AF =  1
+   FC =  0.5
+   TNOM =  27
)

.MODEL J2N5248 NJF (
+   VTO =  -2
+   BETA =  0.006
+   LAMBDA =  0.007
+   RD =  1
+   RS =  1
+   IS =  1.0678e-11
+   CGD =  8e-12
+   CGS =  4e-12
+   PB =  1
+   B =  1
+   KF =  1e-18
+   AF =  1
+   FC =  0.5
+   TNOM =  27
)

.MODEL J2N5360 NJF (
+   VTO =  -2.12
+   BETA =  0.005
+   LAMBDA =  0.008
+   RD =  1
+   RS =  1
+   IS =  1.0678e-12
+   CGD =  8e-12
+   CGS =  4e-12
+   PB =  1
+   B =  1
+   KF =  5.2763e-16
+   AF =  1
+   FC =  0.5
+   TNOM =  27
)

.MODEL J2N5361 NJF (
+   VTO =  -2.22
+   BETA =  0.003
+   LAMBDA =  0.006
+   RD =  1
+   RS =  1
+   IS =  1.0678e-12
+   CGD =  8e-12
+   CGS =  4e-12
+   PB =  1
+   B =  1
+   KF =  5.2763e-16
+   AF =  1
+   FC =  0.5
+   TNOM =  27
)

.MODEL J2N5362 NJF (
+   VTO =  -2.4
+   BETA =  0.001
+   LAMBDA =  0.005
+   RD =  1
+   RS =  1
+   IS =  1.0678e-12
+   CGD =  8e-12
+   CGS =  4e-12
+   PB =  1
+   B =  1
+   KF =  5.2763e-16
+   AF =  1
+   FC =  0.5
+   TNOM =  27
)

.MODEL J2N5363 NJF (
+   VTO =  -2.6
+   BETA =  0.00456
+   LAMBDA =  0.006
+   RD =  1
+   RS =  1
+   IS =  1.0678e-12
+   CGD =  8e-12
+   CGS =  4e-12
+   PB =  1
+   B =  1
+   KF =  5.2763e-16
+   AF =  1
+   FC =  0.5
+   TNOM =  27
)

.MODEL J2N5364 NJF (
+   VTO =  -2.46
+   BETA =  0.006
+   LAMBDA =  0.0063
+   RD =  1
+   RS =  1
+   IS =  1.0678e-12
+   CGD =  8e-12
+   CGS =  4e-12
+   PB =  1
+   B =  1
+   KF =  5.2763e-16
+   AF =  1
+   FC =  0.5
+   TNOM =  27
)

.MODEL J2N5453 NJF (
+   VTO =  -2
+   BETA =  0.0015158
+   LAMBDA =  0.005
+   RD =  1
+   RS =  1
+   IS =  8.8218e-13
+   CGD =  8e-12
+   CGS =  7e-12
+   PB =  1
+   B =  1
+   KF =  2.3862e-15
+   AF =  1
+   FC =  0.5
+   TNOM =  27
)

.MODEL J2N5546 NJF (
+   VTO =  -1.444
+   BETA =  0.01
+   LAMBDA =  0.015
+   RD =  1
+   RS =  1
+   IS =  1.0678e-12
+   CGD =  8e-12
+   CGS =  7e-12
+   PB =  1
+   B =  1
+   KF =  1.1102e-11
+   AF =  1
+   FC =  0.5
+   TNOM =  27
)

.MODEL J2N5547 NJF (
+   VTO =  -2.3038
+   BETA =  0.001004
+   LAMBDA =  0.007
+   RD =  1
+   RS =  1
+   IS =  8.8218e-13
+   CGD =  9.798e-12
+   CGS =  6e-12
+   PB =  1
+   B =  1
+   KF =  1603.5
+   AF =  1
+   FC =  0.5
+   TNOM =  27
)

.MODEL J2N5561 NJF (
+   VTO =  -2.1969
+   BETA =  0.001504
+   LAMBDA =  0.005
+   RD =  1
+   RS =  1
+   IS =  8.8218e-13
+   CGD =  1e-12
+   CGS =  1.5e-11
+   PB =  1
+   B =  1
+   KF =  9.9726e-17
+   AF =  1
+   FC =  0.5
+   TNOM =  27
)

.MODEL J2N5562 NJF (
+   VTO =  -3.7312
+   BETA =  0.002821
+   LAMBDA =  0.005
+   RD =  1
+   RS =  1
+   IS =  8.8218e-13
+   CGD =  1.3266e-11
+   CGS =  1.5e-11
+   PB =  1
+   B =  1
+   KF =  2.5582e-19
+   AF =  1
+   FC =  0.5
+   TNOM =  27
)

.MODEL J2N5563 NJF (
+   VTO =  -0.98501
+   BETA =  0.0032103
+   LAMBDA =  0.00825
+   RD =  1
+   RS =  1
+   IS =  8.8218e-13
+   CGD =  1.3266e-11
+   CGS =  1.5e-11
+   PB =  1
+   B =  1
+   KF =  1.001e-30
+   AF =  1
+   FC =  0.5
+   TNOM =  27
)

.MODEL J2N5654 NJF (
+   VTO =  -1.3016
+   BETA =  0.0032103
+   LAMBDA =  0.00825
+   RD =  1
+   RS =  1
+   IS =  8.8218e-13
+   CGD =  1.3266e-11
+   CGS =  1.5e-11
+   PB =  1
+   B =  1
+   KF =  1e-18
+   AF =  1
+   FC =  0.5
+   TNOM =  27
)

.MODEL J2N5903 NJF (
+   VTO =  -3.4968
+   BETA =  2.0835e-05
+   LAMBDA =  0.0013333
+   RD =  1
+   RS =  1
+   IS =  1.5377e-14
+   CGD =  4.9749e-12
+   CGS =  3e-12
+   PB =  1
+   B =  1
+   KF =  1e-18
+   AF =  1
+   FC =  0.5
+   TNOM =  27
)

.MODEL J2N5949 NJF (
+   VTO =  -2.933
+   BETA =  0.0015158
+   LAMBDA =  0.01
+   RD =  1
+   RS =  1
+   IS =  1.2195e-11
+   CGD =  8e-12
+   CGS =  6e-12
+   PB =  1
+   B =  1
+   KF =  1e-18
+   AF =  1
+   FC =  0.5
+   TNOM =  27
)

.MODEL J2N5950 NJF (
+   VTO =  -4.616
+   BETA =  0.0049137
+   LAMBDA =  0.015
+   RD =  1
+   RS =  1
+   IS =  1.2195e-11
+   CGD =  8e-12
+   CGS =  4e-12
+   PB =  1
+   B =  1
+   KF =  1e-18
+   AF =  1
+   FC =  0.5
+   TNOM =  27
)

.MODEL J2N5951 NJF (
+   VTO =  -3.2943
+   BETA =  0.0015158
+   LAMBDA =  0.01
+   RD =  1
+   RS =  1
+   IS =  1.2195e-11
+   CGD =  8e-12
+   CGS =  4e-12
+   PB =  1
+   B =  1
+   KF =  3.2636e-17
+   AF =  1
+   FC =  0.5
+   TNOM =  27
)

.MODEL J2N5952 NJF (
+   VTO =  -2.522
+   BETA =  0.0022636
+   LAMBDA =  0.016
+   RD =  1
+   RS =  1
+   IS =  1.2195e-11
+   CGD =  8e-12
+   CGS =  4e-12
+   PB =  1
+   B =  1
+   KF =  5.0356e-17
+   AF =  1
+   FC =  0.5
+   TNOM =  27
)

.MODEL J2N5953 NJF (
+   VTO =  -1.24194
+   BETA =  0.005
+   LAMBDA =  0.006
+   RD =  1
+   RS =  1
+   IS =  1.2195e-11
+   CGD =  8e-12
+   CGS =  4e-12
+   PB =  1
+   B =  1
+   KF =  1e-18
+   AF =  1
+   FC =  0.5
+   TNOM =  27
)

.MODEL XN9999 NJF (
+   VTO =  -1.644
+   BETA =  6.2563e-05
+   LAMBDA =  0.006
+   RD =  1
+   RS =  1
+   IS =  1e-14
+   CGD =  1e-12
+   CGS =  1e-12
+   PB =  1
+   B =  1
+   KF =  1.001e-30
+   AF =  1
+   FC =  0.5
+   TNOM =  27
)
