*****************************************************
*ELECTRONICS WORKBENCH MODEL FILE                   * 
*MODELS GENERATED BY: A.MICHEAL/S.IRELAND/S.IRELAND *
*(c) 1996 INTERACTIVE IMAGE TECHNOLOGIES LTD.       * 
*TORONTO, ONTARIO (416)977-5550.                    *
*****************************************************
.MODEL BC264B NJF (
+   VTO =  -2.7225
+   BETA =  0.00084
+   LAMBDA =  0.007
+   RD =  1
+   RS =  1
+   IS =  5.3389e-11
+   CGD =  5.1595e-12
+   CGS =  4.1012e-12
+   PB =  1
+   B =  1
+   KF =  1e-18
+   AF =  1
+   FC =  0.5
+   TNOM =  27
)

.MODEL BC264C NJF (
+   VTO =  -2.7225
+   BETA =  0.001
+   LAMBDA =  2e-08
+   RD =  1
+   RS =  1
+   IS =  5.3389e-11
+   CGD =  5.1595e-12
+   CGS =  4.1012e-12
+   PB =  1
+   B =  1
+   KF =  1e-18
+   AF =  1
+   FC =  0.5
+   TNOM =  27
)

.MODEL BC264D NJF (
+   VTO =  -2.7225
+   BETA =  0.0016
+   LAMBDA =  2e-08
+   RD =  1
+   RS =  1
+   IS =  5.3389e-11
+   CGD =  5.1595e-12
+   CGS =  4.1012e-12
+   PB =  1
+   B =  1
+   KF =  1e-18
+   AF =  1
+   FC =  0.5
+   TNOM =  27
)

.MODEL BC26A NJF (
+   VTO =  -1.6834
+   BETA =  0.0011
+   LAMBDA =  0.0072
+   RD =  1
+   RS =  1
+   IS =  5.3389e-11
+   CGD =  4.9477e-12
+   CGS =  3.9598e-12
+   PB =  1
+   B =  1
+   KF =  1.001e-30
+   AF =  1
+   FC =  0.5
+   TNOM =  27
)

.MODEL BF245A NJF (
+   VTO =  -2.7225
+   BETA =  0.00085
+   LAMBDA =  0.005
+   RD =  1
+   RS =  1
+   IS =  5.3389e-11
+   CGD =  5.1595e-12
+   CGS =  4.1012e-12
+   PB =  1
+   B =  1
+   KF =  1e-18
+   AF =  1
+   FC =  0.5
+   TNOM =  27
)

.MODEL BF245B NJF (
+   VTO =  -2.8805
+   BETA =  0.002
+   LAMBDA =  0.0062
+   RD =  1
+   RS =  1
+   IS =  5.3389e-11
+   CGD =  5.1595e-12
+   CGS =  4.1012e-12
+   PB =  1
+   B =  1
+   KF =  1e-18
+   AF =  1
+   FC =  0.5
+   TNOM =  27
)

.MODEL BF245C NJF (
+   VTO =  -2.7225
+   BETA =  0.003
+   LAMBDA =  0.008
+   RD =  1
+   RS =  1
+   IS =  5.3389e-11
+   CGD =  5.1595e-12
+   CGS =  4.1012e-12
+   PB =  1
+   B =  1
+   KF =  1e-18
+   AF =  1
+   FC =  0.5
+   TNOM =  27
)

.MODEL BF246A NJF (
+   VTO =  -2.8805
+   BETA =  0.0045
+   LAMBDA =  0.007
+   RD =  1
+   RS =  1
+   IS =  5.3389e-11
+   CGD =  5.1595e-12
+   CGS =  4.1012e-12
+   PB =  1
+   B =  1
+   KF =  1e-18
+   AF =  1
+   FC =  0.5
+   TNOM =  27
)

.MODEL BF246B NJF (
+   VTO =  -2.8805
+   BETA =  0.01
+   LAMBDA =  0.009
+   RD =  1
+   RS =  1
+   IS =  5.3389e-11
+   CGD =  5.1595e-12
+   CGS =  4.1012e-12
+   PB =  1
+   B =  1
+   KF =  1e-18
+   AF =  1
+   FC =  0.5
+   TNOM =  27
)

.MODEL BF246C NJF (
+   VTO =  -2.8805
+   BETA =  0.02
+   LAMBDA =  0.0062
+   RD =  1
+   RS =  1
+   IS =  5.3389e-11
+   CGD =  5.1595e-12
+   CGS =  4.1012e-12
+   PB =  1
+   B =  1
+   KF =  1e-18
+   AF =  1
+   FC =  0.5
+   TNOM =  27
)

.MODEL BF247A NJF (
+   VTO =  -2.7225
+   BETA =  0.006
+   LAMBDA =  0.0054
+   RD =  1
+   RS =  1
+   IS =  5.3389e-11
+   CGD =  5.1595e-12
+   CGS =  4.1012e-12
+   PB =  1
+   B =  1
+   KF =  1e-18
+   AF =  1
+   FC =  0.5
+   TNOM =  27
)

.MODEL BF247B NJF (
+   VTO =  -2.7225
+   BETA =  0.013
+   LAMBDA =  0.0063
+   RD =  1
+   RS =  1
+   IS =  5.3389e-11
+   CGD =  5.1595e-12
+   CGS =  4.1012e-12
+   PB =  1
+   B =  1
+   KF =  1e-18
+   AF =  1
+   FC =  0.5
+   TNOM =  27
)

.MODEL BF247C NJF (
+   VTO =  -2.7225
+   BETA =  0.018
+   LAMBDA =  0.087
+   RD =  1
+   RS =  1
+   IS =  5.3389e-11
+   CGD =  5.1595e-12
+   CGS =  4.1012e-12
+   PB =  1
+   B =  1
+   KF =  1e-18
+   AF =  1
+   FC =  0.5
+   TNOM =  27
)

.MODEL BF256A NJF (
+   VTO =  -2
+   BETA =  0.001
+   LAMBDA =  0.074
+   RD =  1
+   RS =  1
+   IS =  1e-14
+   CGD =  1e-12
+   CGS =  1e-12
+   PB =  1
+   B =  1
+   KF =  1e-18
+   AF =  1
+   FC =  0.5
+   TNOM =  27
)

.MODEL BF256B NJF (
+   VTO =  -2
+   BETA =  0.002
+   LAMBDA =  0.00578
+   RD =  1
+   RS =  1
+   IS =  1e-14
+   CGD =  1e-12
+   CGS =  1e-12
+   PB =  1
+   B =  1
+   KF =  1e-18
+   AF =  1
+   FC =  0.5
+   TNOM =  27
)

.MODEL BF256C NJF (
+   VTO =  -2.1
+   BETA =  0.0025
+   LAMBDA =  0.0068
+   RD =  1
+   RS =  1
+   IS =  1e-14
+   CGD =  1e-12
+   CGS =  1e-12
+   PB =  1
+   B =  1
+   KF =  1e-18
+   AF =  1
+   FC =  0.5
+   TNOM =  27
)

.MODEL BF410A NJF (
+   VTO =  -2
+   BETA =  0.00072
+   LAMBDA =  0.007
+   RD =  1
+   RS =  1
+   IS =  4.2611e-10
+   CGD =  1.6583e-12
+   CGS =  1e-12
+   PB =  1
+   B =  1
+   KF =  1e-18
+   AF =  1
+   FC =  0.5
+   TNOM =  27
)

.MODEL BF410B NJF (
+   VTO =  -2
+   BETA =  0.0016
+   LAMBDA =  0.011
+   RD =  1
+   RS =  1
+   IS =  4.2611e-10
+   CGD =  1.6583e-12
+   CGS =  1e-12
+   PB =  1
+   B =  1
+   KF =  1e-18
+   AF =  1
+   FC =  0.5
+   TNOM =  27
)

.MODEL BF410C NJF (
+   VTO =  -2
+   BETA =  0.0025
+   LAMBDA =  0.014
+   RD =  1
+   RS =  1
+   IS =  4.2611e-10
+   CGD =  1.6583e-12
+   CGS =  1e-12
+   PB =  1
+   B =  1
+   KF =  1e-18
+   AF =  1
+   FC =  0.5
+   TNOM =  27
)

.MODEL BF410D NJF (
+   VTO =  -2
+   BETA =  0.0032
+   LAMBDA =  0.018
+   RD =  1
+   RS =  1
+   IS =  4.2611e-10
+   CGD =  1.6583e-12
+   CGS =  1e-12
+   PB =  1
+   B =  1
+   KF =  1e-18
+   AF =  1
+   FC =  0.5
+   TNOM =  27
)

.MODEL BF510 NJF (
+   VTO =  -2
+   BETA =  0.0007
+   LAMBDA =  0.007
+   RD =  1
+   RS =  1
+   IS =  2.6022e-10
+   CGD =  1.6655e-10
+   CGS =  3.7788e-12
+   PB =  0.39089
+   B =  1
+   KF =  1e-18
+   AF =  1
+   FC =  0.5
+   TNOM =  27
)

.MODEL BF511 NJF (
+   VTO =  -2
+   BETA =  0.0015
+   LAMBDA =  0.011
+   RD =  1
+   RS =  1
+   IS =  2.6009e-10
+   CGD =  1.668e-10
+   CGS =  3.7788e-12
+   PB =  0.3905
+   B =  1
+   KF =  1e-18
+   AF =  1
+   FC =  0.5
+   TNOM =  27
)

.MODEL BF512 NJF (
+   VTO =  -2
+   BETA =  0.0023
+   LAMBDA =  0.014
+   RD =  1
+   RS =  1
+   IS =  2.6022e-10
+   CGD =  1.6655e-10
+   CGS =  3.7788e-12
+   PB =  0.39089
+   B =  1
+   KF =  1e-18
+   AF =  1
+   FC =  0.5
+   TNOM =  27
)

.MODEL BF513 NJF (
+   VTO =  -2
+   BETA =  0.0035
+   LAMBDA =  0.017
+   RD =  1
+   RS =  1
+   IS =  2.6009e-10
+   CGD =  1.668e-10
+   CGS =  3.7788e-12
+   PB =  0.3905
+   B =  1
+   KF =  1e-18
+   AF =  1
+   FC =  0.5
+   TNOM =  27
)

.MODEL BF545A NJF (
+   VTO =  -1.7936
+   BETA =  0.0012378
+   LAMBDA =  0.042426
+   RD =  1.1033
+   RS =  1.1033
+   IS =  8.3263e-15
+   CGD =  2.428e-12
+   CGS =  2.1073e-12
+   PB =  1
+   B =  1
+   KF =  1e-18
+   AF =  1
+   FC =  0.5
+   TNOM =  27
)

.MODEL BF545B NJF (
+   VTO =  -3.0168
+   BETA =  0.0010402
+   LAMBDA =  0.0052426
+   RD =  1.1735
+   RS =  1.1735
+   IS =  8.3263e-15
+   CGD =  2.428e-12
+   CGS =  2.1073e-12
+   PB =  1
+   B =  1
+   KF =  1e-18
+   AF =  1
+   FC =  0.5
+   TNOM =  27
)

.MODEL BF545C NJF (
+   VTO =  -3.934
+   BETA =  0.0010425
+   LAMBDA =  0.012426
+   RD =  1.2393
+   RS =  1.2393
+   IS =  8.3263e-15
+   CGD =  2.428e-12
+   CGS =  2.1073e-12
+   PB =  1
+   B =  1
+   KF =  1e-18
+   AF =  1
+   FC =  0.5
+   TNOM =  27
)

.MODEL BF556A NJF (
+   VTO =  -1.8442
+   BETA =  0.0013378
+   LAMBDA =  0.012426
+   RD =  1.1033
+   RS =  1.1033
+   IS =  8.3263e-15
+   CGD =  2.441e-12
+   CGS =  2.0301e-12
+   PB =  1
+   B =  1
+   KF =  1e-18
+   AF =  1
+   FC =  0.5
+   TNOM =  27
)

.MODEL BF556B NJF (
+   VTO =  -2.9215
+   BETA =  0.001202
+   LAMBDA =  0.012426
+   RD =  1.1735
+   RS =  1.1735
+   IS =  8.3263e-15
+   CGD =  2.441e-12
+   CGS =  2.0301e-12
+   PB =  1
+   B =  1
+   KF =  1e-18
+   AF =  1
+   FC =  0.5
+   TNOM =  27
)

.MODEL BF556C NJF (
+   VTO =  -3.6437
+   BETA =  0.001
+   LAMBDA =  0.0072426
+   RD =  1.2393
+   RS =  1.2393
+   IS =  8.3263e-15
+   CGD =  2.441e-12
+   CGS =  2.0301e-12
+   PB =  1
+   B =  1
+   KF =  1e-18
+   AF =  1
+   FC =  0.5
+   TNOM =  27
)

.MODEL BF851A NJF (
+   VTO =  -4.4326
+   BETA =  0.001
+   LAMBDA =  0.005
+   RD =  1
+   RS =  1
+   IS =  1e-14
+   CGD =  1.5047e-11
+   CGS =  6.7533e-12
+   PB =  0.3905
+   B =  1
+   KF =  1.4677e-24
+   AF =  0.0010013
+   FC =  0.5
+   TNOM =  27
)

.MODEL BF851B NJF (
+   VTO =  -5.9059
+   BETA =  0.0014
+   LAMBDA =  0.005
+   RD =  1
+   RS =  1
+   IS =  1e-14
+   CGD =  1.5047e-11
+   CGS =  6.7533e-12
+   PB =  0.3905
+   B =  1
+   KF =  1.4681e-24
+   AF =  0.0010541
+   FC =  0.5
+   TNOM =  27
)

.MODEL BF851C NJF (
+   VTO =  -5.9059
+   BETA =  0.0016
+   LAMBDA =  0.005
+   RD =  1
+   RS =  1
+   IS =  1e-14
+   CGD =  1.1577e-11
+   CGS =  6.6822e-12
+   PB =  0.70165
+   B =  1
+   KF =  1.4684e-24
+   AF =  0.0011038
+   FC =  0.5
+   TNOM =  27
)

.MODEL BF861A NJF (
+   VTO =  -4.4326
+   BETA =  0.002
+   LAMBDA =  0.005
+   RD =  1
+   RS =  1
+   IS =  1e-14
+   CGD =  1.1753e-11
+   CGS =  8.1371e-12
+   PB =  0.3905
+   B =  1
+   KF =  1.4242e-24
+   AF =  0.0010015
+   FC =  0.5
+   TNOM =  27
)

.MODEL BF861B NJF (
+   VTO =  -6.0636
+   BETA =  0.0025
+   LAMBDA =  0.005
+   RD =  1
+   RS =  1
+   IS =  1e-14
+   CGD =  1.1753e-11
+   CGS =  8.1371e-12
+   PB =  0.3905
+   B =  1
+   KF =  1.4244e-24
+   AF =  0.0010431
+   FC =  0.5
+   TNOM =  27
)

.MODEL BF861C NJF (
+   VTO =  -4.4326
+   BETA =  0.003
+   LAMBDA =  0.005
+   RD =  1
+   RS =  1
+   IS =  1e-14
+   CGD =  1.1736e-11
+   CGS =  8.1272e-12
+   PB =  0.39181
+   B =  1
+   KF =  1.4244e-24
+   AF =  0.0010431
+   FC =  0.5
+   TNOM =  27
)

.MODEL BFR30 NJF (
+   VTO =  -6.2414
+   BETA =  0.002
+   LAMBDA =  0.005
+   RD =  1
+   RS =  1
+   IS =  1e-14
+   CGD =  1.57e-12
+   CGS =  2.2093e-12
+   PB =  2.5
+   B =  1
+   KF =  2.7562e-18
+   AF =  0.83592
+   FC =  0.5
+   TNOM =  27
)

.MODEL BFR31 NJF (
+   VTO =  -4.9414
+   BETA =  0.0003
+   LAMBDA =  0.005
+   RD =  1
+   RS =  1
+   IS =  1e-14
+   CGD =  1.57e-12
+   CGS =  2.2093e-12
+   PB =  2.5
+   B =  1
+   KF =  2.7858e-18
+   AF =  0.83786
+   FC =  0.5
+   TNOM =  27
)

.MODEL BFT46 NJF (
+   VTO =  -2.0772
+   BETA =  0.00025
+   LAMBDA =  0.005
+   RD =  1
+   RS =  1
+   IS =  1e-14
+   CGD =  1.4261e-12
+   CGS =  2.5812e-12
+   PB =  2.5
+   B =  1
+   KF =  2.5312e-18
+   AF =  0.84019
+   FC =  0.5
+   TNOM =  27
)
