
.MODEL 2N2222A NPN (
+   IS =  1.16e-14
+   BF =  200
+   BR =  4
+   RB =  1.69
+   RE =  0.423
+   RC =  0.169
+   CJS =  0
+   CJE =  1.95e-11
+   CJC =  9.63e-12
+   VJE =  0.75
+   VJC =  0.75
+   TF =  4.54e-10
+   TR =  1.02e-07
+   MJE =  0.333
+   MJC =  0.333
+   VA =  113
+   ISE =  1.7e-13
+   IKF =  0.41
+   NE =  2
+   NF =  1
+   NR =  1
+   VAR =  1e+30
+   IKR =  1e+30
+   ISC =  0
+   NC =  2
+   IRB =  1e+30
+   RBM =  0
+   XTF =  0
+   VTF =  1e+30
+   ITF =  0
+   PTF =  0
+   XCJC =  1
+   VJS =  0.75
+   MJS =  0
+   XTB =  0
+   EG =  1.11
+   XTI =  3
+   KF =  0
+   AF =  1
+   FC =  0.5
+   TNOM =  27
)

.MODEL 2N4401 NPN (
+   IS =  1.17e-15
+   BF =  392
+   BR =  4
+   RB =  0.492
+   RE =  0.123
+   RC =  0.0492
+   CJS =  0
+   CJE =  2.95e-11
+   CJC =  1.08e-11
+   VJE =  0.75
+   VJC =  0.75
+   TF =  6.36e-10
+   TR =  1.16e-07
+   MJE =  0.333
+   MJC =  0.333
+   VA =  113
+   ISE =  4.84e-12
+   IKF =  0.25
+   NE =  2
+   NF =  1
+   NR =  1
+   VAR =  1e+30
+   IKR =  1e+30
+   ISC =  0
+   NC =  2
+   IRB =  1e+30
+   RBM =  0
+   XTF =  0
+   VTF =  1e+30
+   ITF =  0
+   PTF =  0
+   XCJC =  1
+   VJS =  0.75
+   MJS =  0
+   XTB =  0
+   EG =  1.11
+   XTI =  3
+   KF =  0
+   AF =  1
+   FC =  0.5
+   TNOM =  27
)

.MODEL 2N2218 NPN (
+   IS =  1.16e-14
+   BF =  80
+   BR =  4
+   RB =  1.69
+   RE =  0.423
+   RC =  0.169
+   CJS =  0
+   CJE =  1.95e-11
+   CJC =  9.63e-12
+   VJE =  0.75
+   VJC =  0.75
+   TF =  4.54e-10
+   TR =  1.02e-07
+   MJE =  0.333
+   MJC =  0.333
+   VA =  98.5
+   ISE =  4.26e-13
+   IKF =  0.41
+   NE =  2
+   NF =  1
+   NR =  1
+   VAR =  1e+30
+   IKR =  1e+30
+   ISC =  0
+   NC =  2
+   IRB =  1e+30
+   RBM =  0
+   XTF =  0
+   VTF =  1e+30
+   ITF =  0
+   PTF =  0
+   XCJC =  1
+   VJS =  0.75
+   MJS =  0
+   XTB =  0
+   EG =  1.11
+   XTI =  3
+   KF =  0
+   AF =  1
+   FC =  0.5
+   TNOM =  27
)

.MODEL 2N2222 NPN (
+   IS =  1.16e-14
+   BF =  200
+   BR =  4
+   RB =  1.69
+   RE =  0.423
+   RC =  0.169
+   CJS =  0
+   CJE =  1.95e-11
+   CJC =  9.63e-12
+   VJE =  0.75
+   VJC =  0.75
+   TF =  4.54e-10
+   TR =  1.02e-07
+   MJE =  0.333
+   MJC =  0.333
+   VA =  98.5
+   ISE =  1.7e-13
+   IKF =  0.41
+   NE =  2
+   NF =  1
+   NR =  1
+   VAR =  1e+30
+   IKR =  1e+30
+   ISC =  0
+   NC =  2
+   IRB =  1e+30
+   RBM =  0
+   XTF =  0
+   VTF =  1e+30
+   ITF =  0
+   PTF =  0
+   XCJC =  1
+   VJS =  0.75
+   MJS =  0
+   XTB =  0
+   EG =  1.11
+   XTI =  3
+   KF =  0
+   AF =  1
+   FC =  0.5
+   TNOM =  27
)

.MODEL 2N3904 NPN (
+   IS =  7.62e-16
+   BF =  204
+   BR =  4
+   RB =  2.1
+   RE =  0.525
+   RC =  0.21
+   CJS =  0
+   CJE =  4.85e-12
+   CJC =  5.28e-12
+   VJE =  0.75
+   VJC =  0.75
+   TF =  3.18e-10
+   TR =  4.46e-08
+   MJE =  0.333
+   MJC =  0.333
+   VA =  113
+   ISE =  3.08e-13
+   IKF =  0.07
+   NE =  2
+   NF =  1
+   NR =  1
+   VAR =  1e+30
+   IKR =  1e+30
+   ISC =  0
+   NC =  2
+   IRB =  1e+30
+   RBM =  0
+   XTF =  0
+   VTF =  1e+30
+   ITF =  0
+   PTF =  0
+   XCJC =  1
+   VJS =  0.75
+   MJS =  0
+   XTB =  0
+   EG =  1.11
+   XTI =  3
+   KF =  0
+   AF =  1
+   FC =  0.5
+   TNOM =  27
)
