***************************************************
*ELECTRONICS WORKBENCH MODEL FILE                 * 
*MODELS GENERATED BY: A.MICHEAL/S.IRELAND/R.TALOS *
*(c) 1996 INTERACTIVE IMAGE TECHNOLOGIES LTD.     * 
*TORONTO, ONTARIO (416)977-5550.                  *
***************************************************
.MODEL BC107 NPN (
+   IS =  7.2959e-14
+   BF =  280
+   BR =  1
+   RB =  0
+   RE =  0
+   RC =  0
+   CJS =  0
+   CJE =  2.2548e-11
+   CJC =  1.3297e-11
+   VJE =  0.75
+   VJC =  0.75
+   TF =  3.4506e-10
+   TR =  1e-08
+   MJE =  0.64997
+   MJC =  0.46067
+   VA =  100
+   ISE =  0
+   IKF =  0.01
+   NE =  1.5
+   NF =  1
+   NR =  1
+   VAR =  100
+   IKR =  0.01
+   ISC =  0
+   NC =  2
+   IRB =  1e+30
+   RBM =  0
+   XTF =  11.369
+   VTF =  13.196
+   ITF =  3.7807
+   PTF =  0
+   XCJC =  1
+   VJS =  0.75
+   MJS =  0
+   XTB =  0
+   EG =  1.11
+   XTI =  3
+   KF =  0
+   AF =  1
+   FC =  0.5
+   TNOM =  27
)

.MODEL BC107A NPN (
+   IS =  7.2959e-14
+   BF =  165
+   BR =  1
+   RB =  0
+   RE =  0
+   RC =  0
+   CJS =  0
+   CJE =  2.2548e-11
+   CJC =  1.3297e-11
+   VJE =  0.75
+   VJC =  0.75
+   TF =  3.4573e-10
+   TR =  1e-08
+   MJE =  0.64997
+   MJC =  0.46067
+   VA =  100
+   ISE =  0
+   IKF =  0.01
+   NE =  1.5
+   NF =  1
+   NR =  1
+   VAR =  100
+   IKR =  0.01
+   ISC =  0
+   NC =  2
+   IRB =  1e+30
+   RBM =  0
+   XTF =  16.819
+   VTF =  14.901
+   ITF =  5.0882
+   PTF =  0
+   XCJC =  1
+   VJS =  0.75
+   MJS =  0
+   XTB =  0
+   EG =  1.11
+   XTI =  3
+   KF =  0
+   AF =  1
+   FC =  0.5
+   TNOM =  27
)

.MODEL BC107B NPN (
+   IS =  7.2959e-14
+   BF =  325
+   BR =  1
+   RB =  0
+   RE =  0
+   RC =  0
+   CJS =  0
+   CJE =  2.2548e-11
+   CJC =  1.3297e-11
+   VJE =  0.75
+   VJC =  0.75
+   TF =  3.4573e-10
+   TR =  1e-08
+   MJE =  0.64997
+   MJC =  0.46067
+   VA =  100
+   ISE =  0
+   IKF =  0.01
+   NE =  1.5
+   NF =  1
+   NR =  1
+   VAR =  100
+   IKR =  0.01
+   ISC =  0
+   NC =  2
+   IRB =  1e+30
+   RBM =  0
+   XTF =  16.819
+   VTF =  14.901
+   ITF =  5.0882
+   PTF =  0
+   XCJC =  1
+   VJS =  0.75
+   MJS =  0
+   XTB =  0
+   EG =  1.11
+   XTI =  3
+   KF =  0
+   AF =  1
+   FC =  0.5
+   TNOM =  27
)

.MODEL BC108 NPN (
+   IS =  7.2959e-14
+   BF =  455
+   BR =  1
+   RB =  0
+   RE =  0
+   RC =  0
+   CJS =  0
+   CJE =  2.2548e-11
+   CJC =  1.3297e-11
+   VJE =  0.75
+   VJC =  0.75
+   TF =  3.4566e-10
+   TR =  1e-08
+   MJE =  0.64997
+   MJC =  0.46067
+   VA =  100
+   ISE =  0
+   IKF =  0.01
+   NE =  1.5
+   NF =  1
+   NR =  1
+   VAR =  100
+   IKR =  0.01
+   ISC =  0
+   NC =  2
+   IRB =  1e+30
+   RBM =  0
+   XTF =  18.369
+   VTF =  14.728
+   ITF =  5.3609
+   PTF =  0
+   XCJC =  1
+   VJS =  0.75
+   MJS =  0
+   XTB =  0
+   EG =  1.11
+   XTI =  3
+   KF =  0
+   AF =  1
+   FC =  0.5
+   TNOM =  27
)

.MODEL BC108B NPN (
+   IS =  7.2959e-14
+   BF =  325
+   BR =  1
+   RB =  0
+   RE =  0
+   RC =  0
+   CJS =  0
+   CJE =  2.2548e-11
+   CJC =  1.3297e-11
+   VJE =  0.75
+   VJC =  0.75
+   TF =  3.4573e-10
+   TR =  1e-08
+   MJE =  0.64997
+   MJC =  0.46067
+   VA =  100
+   ISE =  0
+   IKF =  0.01
+   NE =  1.5
+   NF =  1
+   NR =  1
+   VAR =  100
+   IKR =  0.01
+   ISC =  0
+   NC =  2
+   IRB =  1e+30
+   RBM =  0
+   XTF =  16.819
+   VTF =  14.901
+   ITF =  5.0882
+   PTF =  0
+   XCJC =  1
+   VJS =  0.75
+   MJS =  0
+   XTB =  0
+   EG =  1.11
+   XTI =  3
+   KF =  0
+   AF =  1
+   FC =  0.5
+   TNOM =  27
)

.MODEL BC109C NPN (
+   IS =  7.2959e-14
+   BF =  610
+   BR =  1
+   RB =  0
+   RE =  0
+   RC =  0
+   CJS =  0
+   CJE =  2.2548e-11
+   CJC =  1.3297e-11
+   VJE =  0.75
+   VJC =  0.75
+   TF =  3.4598e-10
+   TR =  1e-08
+   MJE =  0.64997
+   MJC =  0.46067
+   VA =  100
+   ISE =  0
+   IKF =  0.01
+   NE =  1.5
+   NF =  1
+   NR =  1
+   VAR =  100
+   IKR =  0.01
+   ISC =  0
+   NC =  2
+   IRB =  1e+30
+   RBM =  0
+   XTF =  23.635
+   VTF =  22.06
+   ITF =  6.8417
+   PTF =  0
+   XCJC =  1
+   VJS =  0.75
+   MJS =  0
+   XTB =  0
+   EG =  1.11
+   XTI =  3
+   KF =  0
+   AF =  1
+   FC =  0.5
+   TNOM =  27
)

.MODEL BC140-10 NPN (
+   IS =  1.2934e-18
+   BF =  111.5
+   BR =  1
+   RB =  0
+   RE =  0
+   RC =  0
+   CJS =  0
+   CJE =  9.485e-11
+   CJC =  2.5e-11
+   VJE =  0.75
+   VJC =  0.75
+   TF =  1.6057e-09
+   TR =  1e-08
+   MJE =  0.33333
+   MJC =  0.33333
+   VA =  100
+   ISE =  0
+   IKF =  0.01
+   NE =  1.5
+   NF =  1
+   NR =  1
+   VAR =  100
+   IKR =  0.01
+   ISC =  0
+   NC =  2
+   IRB =  1e+30
+   RBM =  0
+   XTF =  10
+   VTF =  10
+   ITF =  1
+   PTF =  0
+   XCJC =  1
+   VJS =  0.75
+   MJS =  0
+   XTB =  0
+   EG =  1.11
+   XTI =  3
+   KF =  0
+   AF =  1
+   FC =  0.5
+   TNOM =  27
)

.MODEL BC140-16 NPN (
+   IS =  1.2934e-18
+   BF =  175
+   BR =  1
+   RB =  0
+   RE =  0
+   RC =  0
+   CJS =  0
+   CJE =  9.485e-11
+   CJC =  2.5e-11
+   VJE =  0.75
+   VJC =  0.75
+   TF =  1.6057e-09
+   TR =  1e-08
+   MJE =  0.33333
+   MJC =  0.33333
+   VA =  100
+   ISE =  0
+   IKF =  0.01
+   NE =  1.5
+   NF =  1
+   NR =  1
+   VAR =  100
+   IKR =  0.01
+   ISC =  0
+   NC =  2
+   IRB =  1e+30
+   RBM =  0
+   XTF =  10
+   VTF =  10
+   ITF =  1
+   PTF =  0
+   XCJC =  1
+   VJS =  0.75
+   MJS =  0
+   XTB =  0
+   EG =  1.11
+   XTI =  3
+   KF =  0
+   AF =  1
+   FC =  0.5
+   TNOM =  27
)

.MODEL BC141-10 NPN (
+   IS =  1.2934e-18
+   BF =  111.5
+   BR =  1
+   RB =  0
+   RE =  0
+   RC =  0
+   CJS =  0
+   CJE =  9.485e-11
+   CJC =  2.5e-11
+   VJE =  0.75
+   VJC =  0.75
+   TF =  1.6057e-09
+   TR =  1e-08
+   MJE =  0.33333
+   MJC =  0.33333
+   VA =  100
+   ISE =  0
+   IKF =  0.01
+   NE =  1.5
+   NF =  1
+   NR =  1
+   VAR =  100
+   IKR =  0.01
+   ISC =  0
+   NC =  2
+   IRB =  1e+30
+   RBM =  0
+   XTF =  10
+   VTF =  10
+   ITF =  1
+   PTF =  0
+   XCJC =  1
+   VJS =  0.75
+   MJS =  0
+   XTB =  0
+   EG =  1.11
+   XTI =  3
+   KF =  0
+   AF =  1
+   FC =  0.5
+   TNOM =  27
)

.MODEL BC141-16 NPN (
+   IS =  1.2934e-18
+   BF =  175
+   BR =  1
+   RB =  0
+   RE =  0
+   RC =  0
+   CJS =  0
+   CJE =  9.485e-11
+   CJC =  2.5e-11
+   VJE =  0.75
+   VJC =  0.75
+   TF =  1.6057e-09
+   TR =  1e-08
+   MJE =  0.33333
+   MJC =  0.33333
+   VA =  100
+   ISE =  0
+   IKF =  0.01
+   NE =  1.5
+   NF =  1
+   NR =  1
+   VAR =  100
+   IKR =  0.01
+   ISC =  0
+   NC =  2
+   IRB =  1e+30
+   RBM =  0
+   XTF =  10
+   VTF =  10
+   ITF =  1
+   PTF =  0
+   XCJC =  1
+   VJS =  0.75
+   MJS =  0
+   XTB =  0
+   EG =  1.11
+   XTI =  3
+   KF =  0
+   AF =  1
+   FC =  0.5
+   TNOM =  27
)

.MODEL BC394 NPN (
+   IS =  5.8178e-14
+   BF =  150
+   BR =  0.1001
+   RB =  0
+   RE =  0
+   RC =  0
+   CJS =  0
+   CJE =  8.8922e-11
+   CJC =  1.0586e-11
+   VJE =  0.75
+   VJC =  0.75
+   TF =  1.1217e-09
+   TR =  1e-08
+   MJE =  0.33333
+   MJC =  0.33333
+   VA =  62.367
+   ISE =  0
+   IKF =  0.01
+   NE =  1.5
+   NF =  1
+   NR =  1
+   VAR =  100
+   IKR =  0.01
+   ISC =  5.8178e-14
+   NC =  2
+   IRB =  1e+30
+   RBM =  0
+   XTF =  10
+   VTF =  10
+   ITF =  1
+   PTF =  0
+   XCJC =  1
+   VJS =  0.75
+   MJS =  0
+   XTB =  0
+   EG =  1.11
+   XTI =  3
+   KF =  0
+   AF =  1
+   FC =  0.5
+   TNOM =  27
)

.MODEL BDB01C NPN (
+   IS =  3.2168e-10
+   BF =  288.05
+   BR =  64.908
+   RB =  0
+   RE =  0
+   RC =  0.09117
+   CJS =  0
+   CJE =  5.6373e-11
+   CJC =  1.8183e-11
+   VJE =  0.75
+   VJC =  0.35
+   TF =  5.5689e-10
+   TR =  1e-08
+   MJE =  0.34355
+   MJC =  0.27918
+   VA =  100
+   ISE =  2.2874e-09
+   IKF =  3.0013
+   NE =  1.9356
+   NF =  1
+   NR =  1
+   VAR =  100
+   IKR =  6.0973
+   ISC =  5.2729e-08
+   NC =  1.8086
+   IRB =  1e+30
+   RBM =  0
+   XTF =  62909
+   VTF =  0.24795
+   ITF =  9.2134
+   PTF =  0
+   XCJC =  1
+   VJS =  0.75
+   MJS =  0
+   XTB =  0
+   EG =  1.11
+   XTI =  3
+   KF =  0
+   AF =  1
+   FC =  0.5
+   TNOM =  27
)

.MODEL BDB01D NPN (
+   IS =  3.2168e-10
+   BF =  288.05
+   BR =  64.908
+   RB =  0
+   RE =  0
+   RC =  0.09117
+   CJS =  0
+   CJE =  5.6373e-11
+   CJC =  1.8183e-11
+   VJE =  0.75
+   VJC =  0.35
+   TF =  5.5689e-10
+   TR =  1e-08
+   MJE =  0.34355
+   MJC =  0.27918
+   VA =  100
+   ISE =  2.2874e-09
+   IKF =  3.0013
+   NE =  1.9356
+   NF =  1
+   NR =  1
+   VAR =  100
+   IKR =  6.0973
+   ISC =  5.2729e-08
+   NC =  1.8086
+   IRB =  1e+30
+   RBM =  0
+   XTF =  62909
+   VTF =  0.24795
+   ITF =  9.2134
+   PTF =  0
+   XCJC =  1
+   VJS =  0.75
+   MJS =  0
+   XTB =  0
+   EG =  1.11
+   XTI =  3
+   KF =  0
+   AF =  1
+   FC =  0.5
+   TNOM =  27
)

.MODEL BF258 NPN (
+   IS =  1e-14
+   BF =  80
+   BR =  0.82215
+   RB =  0
+   RE =  0
+   RC =  0
+   CJS =  0
+   CJE =  2e-12
+   CJC =  1.336e-11
+   VJE =  0.75
+   VJC =  0.75
+   TF =  1.2044e-09
+   TR =  1e-08
+   MJE =  0.33
+   MJC =  0.33333
+   VA =  100
+   ISE =  0
+   IKF =  0.01
+   NE =  1.5
+   NF =  1
+   NR =  1
+   VAR =  100
+   IKR =  0.01001
+   ISC =  1e-14
+   NC =  2
+   IRB =  1e+30
+   RBM =  0
+   XTF =  10
+   VTF =  10
+   ITF =  1
+   PTF =  0
+   XCJC =  1
+   VJS =  0.75
+   MJS =  0
+   XTB =  0
+   EG =  1.11
+   XTI =  3
+   KF =  0
+   AF =  1
+   FC =  0.5
+   TNOM =  27
)

.MODEL BSS71 NPN (
+   IS =  4.6543e-13
+   BF =  1498.6
+   BR =  111
+   RB =  0
+   RE =  0
+   RC =  0.081314
+   CJS =  0
+   CJE =  5.3353e-11
+   CJC =  1.0586e-11
+   VJE =  0.75
+   VJC =  0.75
+   TF =  1.6931e-09
+   TR =  1e-08
+   MJE =  0.33333
+   MJC =  0.33333
+   VA =  100
+   ISE =  1.8489e-11
+   IKF =  0.56202
+   NE =  1.5873
+   NF =  1
+   NR =  1
+   VAR =  100
+   IKR =  4.371
+   ISC =  5.4648e-13
+   NC =  1.4592
+   IRB =  1e+30
+   RBM =  0
+   XTF =  7276.9
+   VTF =  6944.7
+   ITF =  6.1154
+   PTF =  0
+   XCJC =  1
+   VJS =  0.75
+   MJS =  0
+   XTB =  0
+   EG =  1.11
+   XTI =  3
+   KF =  0
+   AF =  1
+   FC =  0.5
+   TNOM =  27
)

.MODEL BSS72 NPN (
+   IS =  4.6543e-13
+   BF =  1498.6
+   BR =  111
+   RB =  0
+   RE =  0
+   RC =  0.081314
+   CJS =  0
+   CJE =  5.3353e-11
+   CJC =  1.0586e-11
+   VJE =  0.75
+   VJC =  0.75
+   TF =  1.6931e-09
+   TR =  1e-08
+   MJE =  0.33333
+   MJC =  0.33333
+   VA =  100
+   ISE =  1.8489e-11
+   IKF =  0.56202
+   NE =  1.5873
+   NF =  1
+   NR =  1
+   VAR =  100
+   IKR =  4.371
+   ISC =  5.4648e-13
+   NC =  1.4592
+   IRB =  1e+30
+   RBM =  0
+   XTF =  7276.9
+   VTF =  6944.7
+   ITF =  6.1154
+   PTF =  0
+   XCJC =  1
+   VJS =  0.75
+   MJS =  0
+   XTB =  0
+   EG =  1.11
+   XTI =  3
+   KF =  0
+   AF =  1
+   FC =  0.5
+   TNOM =  27
)

.MODEL BSS73 NPN (
+   IS =  4.6543e-13
+   BF =  1498.6
+   BR =  111
+   RB =  0
+   RE =  0
+   RC =  0.081314
+   CJS =  0
+   CJE =  5.3353e-11
+   CJC =  1.0586e-11
+   VJE =  0.75
+   VJC =  0.75
+   TF =  1.6931e-09
+   TR =  1e-08
+   MJE =  0.33333
+   MJC =  0.33333
+   VA =  100
+   ISE =  1.8489e-11
+   IKF =  0.56202
+   NE =  1.5873
+   NF =  1
+   NR =  1
+   VAR =  100
+   IKR =  4.371
+   ISC =  5.4648e-13
+   NC =  1.4592
+   IRB =  1e+30
+   RBM =  0
+   XTF =  7276.9
+   VTF =  6944.7
+   ITF =  6.1154
+   PTF =  0
+   XCJC =  1
+   VJS =  0.75
+   MJS =  0
+   XTB =  0
+   EG =  1.11
+   XTI =  3
+   KF =  0
+   AF =  1
+   FC =  0.5
+   TNOM =  27
)

.MODEL BSSS71 NPN (
+   IS =  1e-14
+   BF =  100
+   BR =  1
+   RB =  0
+   RE =  0
+   RC =  0
+   CJS =  0
+   CJE =  2e-12
+   CJC =  2e-12
+   VJE =  0.75
+   VJC =  0.75
+   TF =  1e-08
+   TR =  1e-08
+   MJE =  0.33
+   MJC =  0.33
+   VA =  100
+   ISE =  0
+   IKF =  1e+30
+   NE =  1.5
+   NF =  1
+   NR =  1
+   VAR =  100
+   IKR =  1e+30
+   ISC =  0
+   NC =  2
+   IRB =  1e+30
+   RBM =  0
+   XTF =  10
+   VTF =  10
+   ITF =  1
+   PTF =  0
+   XCJC =  1
+   VJS =  0.75
+   MJS =  0
+   XTB =  0
+   EG =  1.11
+   XTI =  3
+   KF =  0
+   AF =  1
+   FC =  0.5
+   TNOM =  27
)

.MODEL BSX20 NPN (
+   IS =  6.7342e-14
+   BF =  80
+   BR =  0.1001
+   RB =  0
+   RE =  0
+   RC =  9.9155
+   CJS =  0
+   CJE =  5.9686e-12
+   CJC =  7.8873e-12
+   VJE =  0.75
+   VJC =  0.75
+   TF =  2.6731e-10
+   TR =  2.3826e-08
+   MJE =  0.33333
+   MJC =  0.33333
+   VA =  100
+   ISE =  0
+   IKF =  0.01
+   NE =  1.5
+   NF =  1
+   NR =  1
+   VAR =  100
+   IKR =  2.3379
+   ISC =  7.1273e-14
+   NC =  1.0012
+   IRB =  1e+30
+   RBM =  0
+   XTF =  10
+   VTF =  10
+   ITF =  1
+   PTF =  0
+   XCJC =  1
+   VJS =  0.75
+   MJS =  0
+   XTB =  0
+   EG =  1.11
+   XTI =  3
+   KF =  0
+   AF =  1
+   FC =  0.5
+   TNOM =  27
)

.MODEL CV12253 NPN (
+   IS =  1e-14
+   BF =  125
+   BR =  1
+   RB =  0
+   RE =  0
+   RC =  0
+   CJS =  0
+   CJE =  2e-12
+   CJC =  4.8582e-11
+   VJE =  0.75
+   VJC =  0.75
+   TF =  1.4208e-09
+   TR =  6.9858e-06
+   MJE =  0.33
+   MJC =  0.33333
+   VA =  100
+   ISE =  0
+   IKF =  0.01
+   NE =  1.5
+   NF =  1
+   NR =  1
+   VAR =  100
+   IKR =  0.01
+   ISC =  0
+   NC =  2
+   IRB =  1e+30
+   RBM =  0
+   XTF =  10
+   VTF =  10
+   ITF =  1
+   PTF =  0
+   XCJC =  1
+   VJS =  0.75
+   MJS =  0
+   XTB =  0
+   EG =  1.11
+   XTI =  3
+   KF =  0
+   AF =  1
+   FC =  0.5
+   TNOM =  27
)

.MODEL MM3001 NPN (
+   IS =  1e-14
+   BF =  20
+   BR =  1
+   RB =  0
+   RE =  0
+   RC =  0
+   CJS =  0
+   CJE =  2e-12
+   CJC =  2.1171e-11
+   VJE =  0.75
+   VJC =  0.75
+   TF =  1.0192e-09
+   TR =  1e-08
+   MJE =  0.33
+   MJC =  0.33333
+   VA =  100
+   ISE =  0
+   IKF =  0.01
+   NE =  1.5
+   NF =  1
+   NR =  1
+   VAR =  100
+   IKR =  0.01
+   ISC =  0
+   NC =  2
+   IRB =  1e+30
+   RBM =  0
+   XTF =  10
+   VTF =  10
+   ITF =  1
+   PTF =  0
+   XCJC =  1
+   VJS =  0.75
+   MJS =  0
+   XTB =  0
+   EG =  1.11
+   XTI =  3
+   KF =  0
+   AF =  1
+   FC =  0.5
+   TNOM =  27
)

.MODEL MM3725 NPN (
+   IS =  2.1853e-12
+   BF =  158.81
+   BR =  0.22915
+   RB =  0
+   RE =  0
+   RC =  0.37257
+   CJS =  0
+   CJE =  6.521e-11
+   CJC =  2.4291e-11
+   VJE =  0.75
+   VJC =  0.75
+   TF =  4.5347e-10
+   TR =  8.6604e-07
+   MJE =  0.33333
+   MJC =  0.33333
+   VA =  100
+   ISE =  3.6435e-11
+   IKF =  0.78836
+   NE =  1.6911
+   NF =  1
+   NR =  1
+   VAR =  100
+   IKR =  9.2387
+   ISC =  1.3208e-07
+   NC =  1.935
+   IRB =  1e+30
+   RBM =  0
+   XTF =  113.01
+   VTF =  423.61
+   ITF =  13.208
+   PTF =  0
+   XCJC =  1
+   VJS =  0.75
+   MJS =  0
+   XTB =  0
+   EG =  1.11
+   XTI =  3
+   KF =  0
+   AF =  1
+   FC =  0.5
+   TNOM =  27
)

.MODEL MUN2211T1 NPN (
+   IS =  1e-14
+   BF =  1498.5
+   BR =  0.60045
+   RB =  0
+   RE =  0
+   RC =  542.57
+   CJS =  0
+   CJE =  2e-12
+   CJC =  4.5125e-12
+   VJE =  0.75
+   VJC =  1.4985
+   TF =  1e-08
+   TR =  1e-08
+   MJE =  0.33
+   MJC =  0.45076
+   VA =  100
+   ISE =  1.0276e-10
+   IKF =  19.98
+   NE =  2
+   NF =  1
+   NR =  1
+   VAR =  100
+   IKR =  0.22084
+   ISC =  0.999
+   NC =  2.997
+   IRB =  1e+30
+   RBM =  0
+   XTF =  10
+   VTF =  10
+   ITF =  1
+   PTF =  0
+   XCJC =  1
+   VJS =  0.75
+   MJS =  0
+   XTB =  0
+   EG =  1.11
+   XTI =  3
+   KF =  0
+   AF =  1
+   FC =  0.5
+   TNOM =  27
)

.MODEL MUN2212T1 NPN (
+   IS =  1e-14
+   BF =  1500
+   BR =  0.1001
+   RB =  0
+   RE =  0
+   RC =  0.48164
+   CJS =  0
+   CJE =  2e-12
+   CJC =  3.0013e-12
+   VJE =  0.75
+   VJC =  1.5
+   TF =  1e-08
+   TR =  1e-08
+   MJE =  0.33
+   MJC =  0.24474
+   VA =  100
+   ISE =  3.7843e-11
+   IKF =  0.45122
+   NE =  2
+   NF =  1
+   NR =  1
+   VAR =  100
+   IKR =  19.98
+   ISC =  1e-14
+   NC =  2.997
+   IRB =  1e+30
+   RBM =  0
+   XTF =  10
+   VTF =  10
+   ITF =  1
+   PTF =  0
+   XCJC =  1
+   VJS =  0.75
+   MJS =  0
+   XTB =  0
+   EG =  1.11
+   XTI =  3
+   KF =  0
+   AF =  1
+   FC =  0.5
+   TNOM =  27
)

.MODEL MUN2213T1 NPN (
+   IS =  1e-14
+   BF =  1498.5
+   BR =  499.17
+   RB =  0
+   RE =  0
+   RC =  103.64
+   CJS =  0
+   CJE =  2e-12
+   CJC =  1.0021e-12
+   VJE =  0.75
+   VJC =  1.5
+   TF =  1e-08
+   TR =  1e-08
+   MJE =  0.33
+   MJC =  0.36702
+   VA =  100
+   ISE =  5.0372e-11
+   IKF =  0.49812
+   NE =  2
+   NF =  1
+   NR =  1
+   VAR =  100
+   IKR =  19.664
+   ISC =  2.6063e-12
+   NC =  2.6123
+   IRB =  1e+30
+   RBM =  0
+   XTF =  10
+   VTF =  10
+   ITF =  1
+   PTF =  0
+   XCJC =  1
+   VJS =  0.75
+   MJS =  0
+   XTB =  0
+   EG =  1.11
+   XTI =  3
+   KF =  0
+   AF =  1
+   FC =  0.5
+   TNOM =  27
)

.MODEL MUN2214T1 NPN (
+   IS =  1e-14
+   BF =  1496.9
+   BR =  500
+   RB =  0
+   RE =  0
+   RC =  54.759
+   CJS =  0
+   CJE =  2e-12
+   CJC =  3.7e-12
+   VJE =  0.75
+   VJC =  0.47795
+   TF =  1e-08
+   TR =  1e-08
+   MJE =  0.33
+   MJC =  0.14303
+   VA =  100
+   ISE =  3.1424e-11
+   IKF =  0.28774
+   NE =  1.9335
+   NF =  1
+   NR =  1
+   VAR =  100
+   IKR =  0.15348
+   ISC =  1.5001e-14
+   NC =  2.997
+   IRB =  1e+30
+   RBM =  0
+   XTF =  10
+   VTF =  10
+   ITF =  1
+   PTF =  0
+   XCJC =  1
+   VJS =  0.75
+   MJS =  0
+   XTB =  0
+   EG =  1.11
+   XTI =  3
+   KF =  0
+   AF =  1
+   FC =  0.5
+   TNOM =  27
)

.MODEL MUN2215T1 NPN (
+   IS =  1e-14
+   BF =  140
+   BR =  500
+   RB =  0
+   RE =  0
+   RC =  54.759
+   CJS =  0
+   CJE =  2e-12
+   CJC =  3.7e-12
+   VJE =  0.75
+   VJC =  0.47795
+   TF =  1e-08
+   TR =  1e-08
+   MJE =  0.33
+   MJC =  0.14303
+   VA =  100
+   ISE =  3.1424e-11
+   IKF =  0.28774
+   NE =  1.9335
+   NF =  1
+   NR =  1
+   VAR =  100
+   IKR =  0.15348
+   ISC =  1.5001e-14
+   NC =  2.997
+   IRB =  1e+30
+   RBM =  0
+   XTF =  10
+   VTF =  10
+   ITF =  1
+   PTF =  0
+   XCJC =  1
+   VJS =  0.75
+   MJS =  0
+   XTB =  0
+   EG =  1.11
+   XTI =  3
+   KF =  0
+   AF =  1
+   FC =  0.5
+   TNOM =  27
)

.MODEL MUN2216T1 NPN (
+   IS =  1e-14
+   BF =  350
+   BR =  500
+   RB =  0
+   RE =  0
+   RC =  54.759
+   CJS =  0
+   CJE =  2e-12
+   CJC =  3.7e-12
+   VJE =  0.75
+   VJC =  0.47795
+   TF =  1e-08
+   TR =  1e-08
+   MJE =  0.33
+   MJC =  0.14303
+   VA =  100
+   ISE =  3.1424e-11
+   IKF =  0.28774
+   NE =  1.9335
+   NF =  1
+   NR =  1
+   VAR =  100
+   IKR =  0.15348
+   ISC =  1.5001e-14
+   NC =  2.997
+   IRB =  1e+30
+   RBM =  0
+   XTF =  10
+   VTF =  10
+   ITF =  1
+   PTF =  0
+   XCJC =  1
+   VJS =  0.75
+   MJS =  0
+   XTB =  0
+   EG =  1.11
+   XTI =  3
+   KF =  0
+   AF =  1
+   FC =  0.5
+   TNOM =  27
)

.MODEL MUN2230T1 NPN (
+   IS =  6.6374e-11
+   BF =  1497.7
+   BR =  499.5
+   RB =  0
+   RE =  0
+   RC =  54.759
+   CJS =  0
+   CJE =  2e-12
+   CJC =  4.5367e-12
+   VJE =  0.75
+   VJC =  0.75
+   TF =  1.5794e-08
+   TR =  1e-08
+   MJE =  0.33
+   MJC =  0.33333
+   VA =  100
+   ISE =  2.7605e-09
+   IKF =  0.49803
+   NE =  2
+   NF =  1
+   NR =  1
+   VAR =  100
+   IKR =  0.15348
+   ISC =  6.6374e-11
+   NC =  2.997
+   IRB =  1e+30
+   RBM =  0
+   XTF =  10
+   VTF =  10
+   ITF =  1
+   PTF =  0
+   XCJC =  1
+   VJS =  0.75
+   MJS =  0
+   XTB =  0
+   EG =  1.11
+   XTI =  3
+   KF =  0
+   AF =  1
+   FC =  0.5
+   TNOM =  27
)

.MODEL MUN2231T1 NPN (
+   IS =  1e-14
+   BF =  15
+   BR =  499.5
+   RB =  0
+   RE =  0
+   RC =  54.759
+   CJS =  0
+   CJE =  2e-12
+   CJC =  3.7e-12
+   VJE =  0.75
+   VJC =  0.47795
+   TF =  1e-08
+   TR =  1e-08
+   MJE =  0.33
+   MJC =  0.14303
+   VA =  100
+   ISE =  3.1424e-11
+   IKF =  0.28774
+   NE =  1.9335
+   NF =  1
+   NR =  1
+   VAR =  100
+   IKR =  0.15348
+   ISC =  1.5001e-14
+   NC =  2.997
+   IRB =  1e+30
+   RBM =  0
+   XTF =  10
+   VTF =  10
+   ITF =  1
+   PTF =  0
+   XCJC =  1
+   VJS =  0.75
+   MJS =  0
+   XTB =  0
+   EG =  1.11
+   XTI =  3
+   KF =  0
+   AF =  1
+   FC =  0.5
+   TNOM =  27
)

.MODEL MUN2232T1 NPN (
+   IS =  1e-14
+   BF =  30
+   BR =  499.5
+   RB =  0
+   RE =  0
+   RC =  54.759
+   CJS =  0
+   CJE =  2e-12
+   CJC =  3.7e-12
+   VJE =  0.75
+   VJC =  0.47795
+   TF =  1e-08
+   TR =  1e-08
+   MJE =  0.33
+   MJC =  0.14303
+   VA =  100
+   ISE =  3.1424e-11
+   IKF =  0.28774
+   NE =  1.9335
+   NF =  1
+   NR =  1
+   VAR =  100
+   IKR =  0.15348
+   ISC =  1.5001e-14
+   NC =  2.997
+   IRB =  1e+30
+   RBM =  0
+   XTF =  10
+   VTF =  10
+   ITF =  1
+   PTF =  0
+   XCJC =  1
+   VJS =  0.75
+   MJS =  0
+   XTB =  0
+   EG =  1.11
+   XTI =  3
+   KF =  0
+   AF =  1
+   FC =  0.5
+   TNOM =  27
)

.MODEL MUN2233T1 NPN (
+   IS =  1e-14
+   BF =  200
+   BR =  499.5
+   RB =  0
+   RE =  0
+   RC =  54.759
+   CJS =  0
+   CJE =  2e-12
+   CJC =  3.7e-12
+   VJE =  0.75
+   VJC =  0.47795
+   TF =  1e-08
+   TR =  1e-08
+   MJE =  0.33
+   MJC =  0.14303
+   VA =  100
+   ISE =  3.1424e-11
+   IKF =  0.28774
+   NE =  1.9335
+   NF =  1
+   NR =  1
+   VAR =  100
+   IKR =  0.15348
+   ISC =  1.5001e-14
+   NC =  2.997
+   IRB =  1e+30
+   RBM =  0
+   XTF =  10
+   VTF =  10
+   ITF =  1
+   PTF =  0
+   XCJC =  1
+   VJS =  0.75
+   MJS =  0
+   XTB =  0
+   EG =  1.11
+   XTI =  3
+   KF =  0
+   AF =  1
+   FC =  0.5
+   TNOM =  27
)

.MODEL MUN2234T1 NPN (
+   IS =  1e-14
+   BF =  150
+   BR =  499.5
+   RB =  0
+   RE =  0
+   RC =  54.759
+   CJS =  0
+   CJE =  2e-12
+   CJC =  3.7e-12
+   VJE =  0.75
+   VJC =  0.47795
+   TF =  1e-08
+   TR =  1e-08
+   MJE =  0.33
+   MJC =  0.14303
+   VA =  100
+   ISE =  3.1424e-11
+   IKF =  0.28774
+   NE =  1.9335
+   NF =  1
+   NR =  1
+   VAR =  100
+   IKR =  0.15348
+   ISC =  1.5001e-14
+   NC =  2.997
+   IRB =  1e+30
+   RBM =  0
+   XTF =  10
+   VTF =  10
+   ITF =  1
+   PTF =  0
+   XCJC =  1
+   VJS =  0.75
+   MJS =  0
+   XTB =  0
+   EG =  1.11
+   XTI =  3
+   KF =  0
+   AF =  1
+   FC =  0.5
+   TNOM =  27
)

.MODEL MUN5211T1 NPN (
+   IS =  1e-14
+   BF =  1500
+   BR =  450.56
+   RB =  0
+   RE =  0
+   RC =  7.6863e-08
+   CJS =  0
+   CJE =  2e-12
+   CJC =  3.7672e-12
+   VJE =  0.75
+   VJC =  1.5
+   TF =  1e-08
+   TR =  1e-08
+   MJE =  0.33
+   MJC =  0.40008
+   VA =  100
+   ISE =  1.0718e-10
+   IKF =  20
+   NE =  2
+   NF =  1
+   NR =  1
+   VAR =  100
+   IKR =  1.3416
+   ISC =  5.3616e-05
+   NC =  3
+   IRB =  1e+30
+   RBM =  0
+   XTF =  10
+   VTF =  10
+   ITF =  1
+   PTF =  0
+   XCJC =  1
+   VJS =  0.75
+   MJS =  0
+   XTB =  0
+   EG =  1.11
+   XTI =  3
+   KF =  0
+   AF =  1
+   FC =  0.5
+   TNOM =  27
)

.MODEL MUN5212T1 NPN (
+   IS =  1e-14
+   BF =  1500
+   BR =  7.3992
+   RB =  0
+   RE =  0
+   RC =  1.9311
+   CJS =  0
+   CJE =  2e-12
+   CJC =  3e-12
+   VJE =  0.75
+   VJC =  0.35
+   TF =  1e-08
+   TR =  1e-08
+   MJE =  0.33
+   MJC =  0.17624
+   VA =  100
+   ISE =  3.6336e-11
+   IKF =  0.44871
+   NE =  2
+   NF =  1
+   NR =  1
+   VAR =  100
+   IKR =  19.886
+   ISC =  1.0092e-08
+   NC =  2.6271
+   IRB =  1e+30
+   RBM =  0
+   XTF =  10
+   VTF =  10
+   ITF =  1
+   PTF =  0
+   XCJC =  1
+   VJS =  0.75
+   MJS =  0
+   XTB =  0
+   EG =  1.11
+   XTI =  3
+   KF =  0
+   AF =  1
+   FC =  0.5
+   TNOM =  27
)

.MODEL MUN5213T1 NPN (
+   IS =  1e-14
+   BF =  1497.6
+   BR =  0.1001
+   RB =  0
+   RE =  0
+   RC =  0.69413
+   CJS =  0
+   CJE =  2e-12
+   CJC =  1.0021e-12
+   VJE =  0.75
+   VJC =  1.5
+   TF =  1e-08
+   TR =  1e-08
+   MJE =  0.33
+   MJC =  0.36702
+   VA =  100
+   ISE =  4.6464e-11
+   IKF =  0.17756
+   NE =  2
+   NF =  1
+   NR =  1
+   VAR =  100
+   IKR =  19.98
+   ISC =  1.232e-14
+   NC =  2.994
+   IRB =  1e+30
+   RBM =  0
+   XTF =  10
+   VTF =  10
+   ITF =  1
+   PTF =  0
+   XCJC =  1
+   VJS =  0.75
+   MJS =  0
+   XTB =  0
+   EG =  1.11
+   XTI =  3
+   KF =  0
+   AF =  1
+   FC =  0.5
+   TNOM =  27
)

.MODEL MUN5214T1 NPN (
+   IS =  1e-14
+   BF =  1496.9
+   BR =  3.6731
+   RB =  0
+   RE =  0
+   RC =  0.54172
+   CJS =  0
+   CJE =  2e-12
+   CJC =  3.7e-12
+   VJE =  0.75
+   VJC =  0.8883
+   TF =  1e-08
+   TR =  1e-08
+   MJE =  0.33
+   MJC =  0.16464
+   VA =  100
+   ISE =  3.1425e-11
+   IKF =  0.28775
+   NE =  1.9335
+   NF =  1
+   NR =  1
+   VAR =  100
+   IKR =  3.8229
+   ISC =  2.2694e-12
+   NC =  1.5084
+   IRB =  1e+30
+   RBM =  0
+   XTF =  10
+   VTF =  10
+   ITF =  1
+   PTF =  0
+   XCJC =  1
+   VJS =  0.75
+   MJS =  0
+   XTB =  0
+   EG =  1.11
+   XTI =  3
+   KF =  0
+   AF =  1
+   FC =  0.5
+   TNOM =  27
)

.MODEL MUN5215T1 NPN (
+   IS =  1e-14
+   BF =  350
+   BR =  0.1001
+   RB =  0
+   RE =  0
+   RC =  0.54172
+   CJS =  0
+   CJE =  2e-12
+   CJC =  3.7e-12
+   VJE =  0.75
+   VJC =  0.8883
+   TF =  1e-08
+   TR =  1e-08
+   MJE =  0.33
+   MJC =  0.16464
+   VA =  100
+   ISE =  3.1425e-11
+   IKF =  0.28775
+   NE =  1.9335
+   NF =  1
+   NR =  1
+   VAR =  100
+   IKR =  3.8229
+   ISC =  2.2694e-12
+   NC =  1.5084
+   IRB =  1e+30
+   RBM =  0
+   XTF =  10
+   VTF =  10
+   ITF =  1
+   PTF =  0
+   XCJC =  1
+   VJS =  0.75
+   MJS =  0
+   XTB =  0
+   EG =  1.11
+   XTI =  3
+   KF =  0
+   AF =  1
+   FC =  0.5
+   TNOM =  27
)

.MODEL MUN5216T1 NPN (
+   IS =  1e-14
+   BF =  350
+   BR =  0.1001
+   RB =  0
+   RE =  0
+   RC =  0.54172
+   CJS =  0
+   CJE =  2e-12
+   CJC =  3.7e-12
+   VJE =  0.75
+   VJC =  0.8883
+   TF =  1e-08
+   TR =  1e-08
+   MJE =  0.33
+   MJC =  0.16464
+   VA =  100
+   ISE =  3.1425e-11
+   IKF =  0.28775
+   NE =  1.9335
+   NF =  1
+   NR =  1
+   VAR =  100
+   IKR =  3.8229
+   ISC =  2.2694e-12
+   NC =  1.5084
+   IRB =  1e+30
+   RBM =  0
+   XTF =  10
+   VTF =  10
+   ITF =  1
+   PTF =  0
+   XCJC =  1
+   VJS =  0.75
+   MJS =  0
+   XTB =  0
+   EG =  1.11
+   XTI =  3
+   KF =  0
+   AF =  1
+   FC =  0.5
+   TNOM =  27
)

.MODEL MUN5230T1 NPN (
+   IS =  6.6374e-11
+   BF =  50
+   BR =  0.1001
+   RB =  0
+   RE =  0
+   RC =  0.54172
+   CJS =  0
+   CJE =  2e-12
+   CJC =  3.7e-12
+   VJE =  0.75
+   VJC =  0.8883
+   TF =  1.5878e-08
+   TR =  1e-08
+   MJE =  0.33
+   MJC =  0.16464
+   VA =  100
+   ISE =  3.1425e-11
+   IKF =  0.28775
+   NE =  1.9335
+   NF =  1
+   NR =  1
+   VAR =  100
+   IKR =  3.8229
+   ISC =  6.6374e-11
+   NC =  1.5084
+   IRB =  1e+30
+   RBM =  0
+   XTF =  10
+   VTF =  10
+   ITF =  1
+   PTF =  0
+   XCJC =  1
+   VJS =  0.75
+   MJS =  0
+   XTB =  0
+   EG =  1.11
+   XTI =  3
+   KF =  0
+   AF =  1
+   FC =  0.5
+   TNOM =  27
)

.MODEL MUN5231T1 NPN (
+   IS =  1e-14
+   BF =  15
+   BR =  0.1001
+   RB =  0
+   RE =  0
+   RC =  0.54172
+   CJS =  0
+   CJE =  2e-12
+   CJC =  3.7e-12
+   VJE =  0.75
+   VJC =  0.8883
+   TF =  1e-08
+   TR =  1e-08
+   MJE =  0.33
+   MJC =  0.16464
+   VA =  100
+   ISE =  3.1425e-11
+   IKF =  0.28775
+   NE =  1.9335
+   NF =  1
+   NR =  1
+   VAR =  100
+   IKR =  3.8229
+   ISC =  2.2694e-12
+   NC =  1.5084
+   IRB =  1e+30
+   RBM =  0
+   XTF =  10
+   VTF =  10
+   ITF =  1
+   PTF =  0
+   XCJC =  1
+   VJS =  0.75
+   MJS =  0
+   XTB =  0
+   EG =  1.11
+   XTI =  3
+   KF =  0
+   AF =  1
+   FC =  0.5
+   TNOM =  27
)

.MODEL MUN5232T1 NPN (
+   IS =  1e-14
+   BF =  30
+   BR =  0.1001
+   RB =  0
+   RE =  0
+   RC =  0.54172
+   CJS =  0
+   CJE =  2e-12
+   CJC =  3.7e-12
+   VJE =  0.75
+   VJC =  0.8883
+   TF =  1e-08
+   TR =  1e-08
+   MJE =  0.33
+   MJC =  0.16464
+   VA =  100
+   ISE =  3.1425e-11
+   IKF =  0.28775
+   NE =  1.9335
+   NF =  1
+   NR =  1
+   VAR =  100
+   IKR =  3.8229
+   ISC =  2.2694e-12
+   NC =  1.5084
+   IRB =  1e+30
+   RBM =  0
+   XTF =  10
+   VTF =  10
+   ITF =  1
+   PTF =  0
+   XCJC =  1
+   VJS =  0.75
+   MJS =  0
+   XTB =  0
+   EG =  1.11
+   XTI =  3
+   KF =  0
+   AF =  1
+   FC =  0.5
+   TNOM =  27
)

.MODEL MUN5233T1 NPN (
+   IS =  1e-14
+   BF =  200
+   BR =  0.1001
+   RB =  0
+   RE =  0
+   RC =  0.54172
+   CJS =  0
+   CJE =  2e-12
+   CJC =  3.7e-12
+   VJE =  0.75
+   VJC =  0.8883
+   TF =  1e-08
+   TR =  1e-08
+   MJE =  0.33
+   MJC =  0.16464
+   VA =  100
+   ISE =  3.1425e-11
+   IKF =  0.28775
+   NE =  1.9335
+   NF =  1
+   NR =  1
+   VAR =  100
+   IKR =  3.8229
+   ISC =  2.2694e-12
+   NC =  1.5084
+   IRB =  1e+30
+   RBM =  0
+   XTF =  10
+   VTF =  10
+   ITF =  1
+   PTF =  0
+   XCJC =  1
+   VJS =  0.75
+   MJS =  0
+   XTB =  0
+   EG =  1.11
+   XTI =  3
+   KF =  0
+   AF =  1
+   FC =  0.5
+   TNOM =  27
)

.MODEL MUN5234T1 NPN (
+   IS =  1e-14
+   BF =  150
+   BR =  0.1001
+   RB =  0
+   RE =  0
+   RC =  0.54172
+   CJS =  0
+   CJE =  2e-12
+   CJC =  3.7e-12
+   VJE =  0.75
+   VJC =  0.8883
+   TF =  1e-08
+   TR =  1e-08
+   MJE =  0.33
+   MJC =  0.16464
+   VA =  100
+   ISE =  3.1425e-11
+   IKF =  0.28775
+   NE =  1.9335
+   NF =  1
+   NR =  1
+   VAR =  100
+   IKR =  3.8229
+   ISC =  2.2694e-12
+   NC =  1.5084
+   IRB =  1e+30
+   RBM =  0
+   XTF =  10
+   VTF =  10
+   ITF =  1
+   PTF =  0
+   XCJC =  1
+   VJS =  0.75
+   MJS =  0
+   XTB =  0
+   EG =  1.11
+   XTI =  3
+   KF =  0
+   AF =  1
+   FC =  0.5
+   TNOM =  27
)

.MODEL P2N2222A NPN (
+   IS =  6.4672e-19
+   BF =  1125.2
+   BR =  1.24
+   RB =  0
+   RE =  0
+   RC =  0.066
+   CJS =  0
+   CJE =  2.9641e-11
+   CJC =  1.9433e-11
+   VJE =  0.75
+   VJC =  0.75
+   TF =  4.4512e-10
+   TR =  3.3071e-07
+   MJE =  0.33333
+   MJC =  0.33333
+   VA =  100
+   ISE =  4.1749e-18
+   IKF =  3.1536
+   NE =  1.2289
+   NF =  1
+   NR =  1
+   VAR =  100
+   IKR =  1.56
+   ISC =  1.1322e-17
+   NC =  1.556
+   IRB =  1e+30
+   RBM =  0
+   XTF =  10
+   VTF =  10
+   ITF =  1
+   PTF =  0
+   XCJC =  1
+   VJS =  0.75
+   MJS =  0
+   XTB =  0
+   EG =  1.11
+   XTI =  3
+   KF =  0
+   AF =  1
+   FC =  0.5
+   TNOM =  27
)

.MODEL PBF259 NPN (
+   IS =  1e-14
+   BF =  24.199
+   BR =  0.1001
+   RB =  0
+   RE =  0
+   RC =  0
+   CJS =  0
+   CJE =  2e-12
+   CJC =  9.0735e-12
+   VJE =  0.75
+   VJC =  0.75
+   TF =  3.9542e-09
+   TR =  1e-08
+   MJE =  0.33
+   MJC =  0.33333
+   VA =  100
+   ISE =  1.053e-13
+   IKF =  0.80222
+   NE =  1.51
+   NF =  1