
.MODEL CHOKE D (
+   IS =  1e-14
+   RS =  0
+   CJO =  1e-11
+   VJ =  1
+   TT =  0
+   M =  0.5
+   BV =  1e+30
+   N =  1
+   EG =  1.11
+   XTI =  3
+   KF =  0
+   AF =  1
+   FC =  0.5
+   IBV =  0.001
+   TNOM =  27
)

.MODEL diode D (
+   IS =  1e-14
+   RS =  0
+   CJO =  0
+   VJ =  0.75
+   TT =  0
+   M =  0.5
+   BV =  1e+30
+   N =  1
+   EG =  1.11
+   XTI =  3
+   KF =  0
+   AF =  1
+   FC =  0.5
+   IBV =  0.001
+   TNOM =  27
)

.MODEL 727z D (
+   IS =  1e-14
+   RS =  0
+   CJO =  0
+   VJ =  0.75
+   TT =  0
+   M =  0.5
+   BV =  6.2
+   N =  1
+   EG =  1.11
+   XTI =  3
+   KF =  0
+   AF =  1
+   FC =  0.5
+   IBV =  0.001
+   TNOM =  27
)
