
.MODEL 1N4001 D (
+   IS =  1.41e-16
+   RS =  0.0401
+   CJO =  7.76e-11
+   VJ =  0.75
+   TT =  2.16e-07
+   M =  0.333
+   BV =  49.9
+   N =  1.7
+   EG =  1.11
+   XTI =  3
+   KF =  0
+   AF =  1
+   FC =  0.5
+   IBV =  0.001
+   TNOM =  27
)

.MODEL 1N4148 D (
+   IS =  1.42e-18
+   RS =  4.2
+   CJO =  1.73e-12
+   VJ =  0.75
+   TT =  5.76e-09
+   M =  0.333
+   BV =  74.9
+   N =  1.7
+   EG =  1.11
+   XTI =  3
+   KF =  0
+   AF =  1
+   FC =  0.5
+   IBV =  0.001
+   TNOM =  27
)
