***********************************************
*ELECTRONICS WORKBENCH MODEL FILE             * 
*MODELS GENERATED BY: S.MOORE/R.TALOS         *
*(c) 1996 INTERACTIVE IMAGE TECHNOLOGIES LTD. * 
*TORONTO, ONTARIO (416)977-5550.              *
***********************************************
.MODEL IRF9130 PMOS (
+   VTO =  2.8649
+   KP =  5.1616e-07
+   LAMBDA =  0
+   PHI =  0.6
+   GAMMA =  0
+   RD =  0.10735
+   RS =  0.01
+   IS =  1e-14
+   CGBO =  0
+   CGDO =  3.5999e-11
+   CGSO =  3.2638e-10
+   CBD =  8.8575e-10
+   CBS =  0
+   PB =  0.8
+   RSH =  0
+   CJ =  0
+   MJ =  0.5
+   CJSW =  0
+   MJSW =  0.5
+   JS =  0
+   TOX =  2e-06
+   NSUB =  0
+   NSS =  0
+   TPG =  1
+   LD =  0
+   U0 =  600
+   KF =  0
+   AF =  1
+   FC =  0.5
+   TNOM =  27
)

.MODEL IRF9131 PMOS (
+   VTO =  2.8649
+   KP =  5.1616e-07
+   LAMBDA =  0
+   PHI =  0.6
+   GAMMA =  0
+   RD =  0.10735
+   RS =  0.01
+   IS =  1e-14
+   CGBO =  0
+   CGDO =  4.5637e-11
+   CGSO =  3.2419e-10
+   CBD =  6.9203e-10
+   CBS =  0
+   PB =  0.8
+   RSH =  0
+   CJ =  0
+   MJ =  0.5
+   CJSW =  0
+   MJSW =  0.5
+   JS =  0
+   TOX =  2e-06
+   NSUB =  0
+   NSS =  0
+   TPG =  1
+   LD =  0
+   U0 =  600
+   KF =  0
+   AF =  1
+   FC =  0.5
+   TNOM =  27
)

.MODEL IRF9140 PMOS (
+   VTO =  5.1286
+   KP =  5.1504e-07
+   LAMBDA =  0
+   PHI =  0.6
+   GAMMA =  0
+   RD =  0.059167
+   RS =  0.01
+   IS =  1e-14
+   CGBO =  0
+   CGDO =  6.5913e-11
+   CGSO =  1.0425e-10
+   CBD =  3.3181e-10
+   CBS =  0
+   PB =  0.8
+   RSH =  0
+   CJ =  0
+   MJ =  0.5
+   CJSW =  0
+   MJSW =  0.5
+   JS =  0
+   TOX =  2e-06
+   NSUB =  0
+   NSS =  0
+   TPG =  1
+   LD =  0
+   U0 =  600
+   KF =  0
+   AF =  1
+   FC =  0.5
+   TNOM =  27
)

.MODEL IRF9141 PMOS (
+   VTO =  3.1497
+   KP =  5.1504e-07
+   LAMBDA =  0
+   PHI =  0.6
+   GAMMA =  0
+   RD =  0.085503
+   RS =  0.01
+   IS =  1e-14
+   CGBO =  0
+   CGDO =  8.3134e-11
+   CGSO =  1.4474e-10
+   CBD =  1e-18
+   CBS =  0
+   PB =  0.8
+   RSH =  0
+   CJ =  0
+   MJ =  0.5
+   CJSW =  0
+   MJSW =  0.5
+   JS =  0
+   TOX =  2e-06
+   NSUB =  0
+   NSS =  0
+   TPG =  1
+   LD =  0
+   U0 =  600
+   KF =  0
+   AF =  1
+   FC =  0.5
+   TNOM =  27
)

.MODEL IRF9142 PMOS (
+   VTO =  5.1286
+   KP =  5.1504e-07
+   LAMBDA =  0
+   PHI =  0.6
+   GAMMA =  0
+   RD =  0.059167
+   RS =  0.01
+   IS =  1e-14
+   CGBO =  0
+   CGDO =  6.5913e-11
+   CGSO =  1.0425e-10
+   CBD =  3.3181e-10
+   CBS =  0
+   PB =  0.8
+   RSH =  0
+   CJ =  0
+   MJ =  0.5
+   CJSW =  0
+   MJSW =  0.5
+   JS =  0
+   TOX =  2e-06
+   NSUB =  0
+   NSS =  0
+   TPG =  1
+   LD =  0
+   U0 =  600
+   KF =  0
+   AF =  1
+   FC =  0.5
+   TNOM =  27
)

.MODEL IRF9143 PMOS (
+   VTO =  3.1497
+   KP =  5.1504e-07
+   LAMBDA =  0
+   PHI =  0.6
+   GAMMA =  0
+   RD =  0.085503
+   RS =  0.01
+   IS =  1e-14
+   CGBO =  0
+   CGDO =  8.3134e-11
+   CGSO =  1.4474e-10
+   CBD =  1e-18
+   CBS =  0
+   PB =  0.8
+   RSH =  0
+   CJ =  0
+   MJ =  0.5
+   CJSW =  0
+   MJSW =  0.5
+   JS =  0
+   TOX =  2e-06
+   NSUB =  0
+   NSS =  0
+   TPG =  1
+   LD =  0
+   U0 =  600
+   KF =  0
+   AF =  1
+   FC =  0.5
+   TNOM =  27
)

.MODEL IRF9230 PMOS (
+   VTO =  3.5521
+   KP =  5.1486e-07
+   LAMBDA =  0
+   PHI =  0.6
+   GAMMA =  0
+   RD =  0.40505
+   RS =  0.01
+   IS =  1e-14
+   CGBO =  0
+   CGDO =  1.1252e-11
+   CGSO =  3.6277e-10
+   CBD =  5.1181e-10
+   CBS =  0
+   PB =  0.8
+   RSH =  0
+   CJ =  0
+   MJ =  0.5
+   CJSW =  0
+   MJSW =  0.5
+   JS =  0
+   TOX =  2e-06
+   NSUB =  0
+   NSS =  0
+   TPG =  1
+   LD =  0
+   U0 =  600
+   KF =  0
+   AF =  1
+   FC =  0.5
+   TNOM =  27
)

.MODEL IRF9231 PMOS (
+   VTO =  3.5521
+   KP =  5.1486e-07
+   LAMBDA =  0
+   PHI =  0.6
+   GAMMA =  0
+   RD =  0.40505
+   RS =  0.01
+   IS =  1e-14
+   CGBO =  0
+   CGDO =  1.5057e-11
+   CGSO =  3.6225e-10
+   CBD =  3.6402e-10
+   CBS =  0
+   PB =  0.8
+   RSH =  0
+   CJ =  0
+   MJ =  0.5
+   CJSW =  0
+   MJSW =  0.5
+   JS =  0
+   TOX =  2e-06
+   NSUB =  0
+   NSS =  0
+   TPG =  1
+   LD =  0
+   U0 =  600
+   KF =  0
+   AF =  1
+   FC =  0.5
+   TNOM =  27
)

.MODEL IRF9232 PMOS (
+   VTO =  3.5521
+   KP =  5.1486e-07
+   LAMBDA =  0
+   PHI =  0.6
+   GAMMA =  0
+   RD =  0.40505
+   RS =  0.01
+   IS =  1e-14
+   CGBO =  0
+   CGDO =  1.1252e-11
+   CGSO =  3.6277e-10
+   CBD =  5.1181e-10
+   CBS =  0
+   PB =  0.8
+   RSH =  0
+   CJ =  0
+   MJ =  0.5
+   CJSW =  0
+   MJSW =  0.5
+   JS =  0
+   TOX =  2e-06
+   NSUB =  0
+   NSS =  0
+   TPG =  1
+   LD =  0
+   U0 =  600
+   KF =  0
+   AF =  1
+   FC =  0.5
+   TNOM =  27
)

.MODEL IRF9233 PMOS (
+   VTO =  3.5521
+   KP =  5.1486e-07
+   LAMBDA =  0
+   PHI =  0.6
+   GAMMA =  0
+   RD =  0.40505
+   RS =  0.01
+   IS =  1e-14
+   CGBO =  0
+   CGDO =  1.5057e-11
+   CGSO =  3.6225e-10
+   CBD =  3.6402e-10
+   CBS =  0
+   PB =  0.8
+   RSH =  0
+   CJ =  0
+   MJ =  0.5
+   CJSW =  0
+   MJSW =  0.5
+   JS =  0
+   TOX =  2e-06
+   NSUB =  0
+   NSS =  0
+   TPG =  1
+   LD =  0
+   U0 =  600
+   KF =  0
+   AF =  1
+   FC =  0.5
+   TNOM =  27
)

.MODEL IRF9240 PMOS (
+   VTO =  3.8775
+   KP =  5.2234e-07
+   LAMBDA =  0
+   PHI =  0.6
+   GAMMA =  0
+   RD =  0.29019
+   RS =  0.01
+   IS =  1e-14
+   CGBO =  0
+   CGDO =  7.2865e-12
+   CGSO =  6.236e-10
+   CBD =  1e-09
+   CBS =  0
+   PB =  0.8
+   RSH =  0
+   CJ =  0
+   MJ =  0.5
+   CJSW =  0
+   MJSW =  0.5
+   JS =  0
+   TOX =  2e-06
+   NSUB =  0
+   NSS =  0
+   TPG =  1
+   LD =  0
+   U0 =  600
+   KF =  0
+   AF =  1
+   FC =  0.5
+   TNOM =  27
)

.MODEL IRF9241 PMOS (
+   VTO =  3.8775
+   KP =  5.2234e-07
+   LAMBDA =  0
+   PHI =  0.6
+   GAMMA =  0
+   RD =  0.29019
+   RS =  0.01
+   IS =  1e-14
+   CGBO =  0
+   CGDO =  9.7491e-12
+   CGSO =  6.2341e-10
+   CBD =  1.4204e-09
+   CBS =  0
+   PB =  0.8
+   RSH =  0
+   CJ =  0
+   MJ =  0.5
+   CJSW =  0
+   MJSW =  0.5
+   JS =  0
+   TOX =  2e-06
+   NSUB =  0
+   NSS =  0
+   TPG =  1
+   LD =  0
+   U0 =  600
+   KF =  0
+   AF =  1
+   FC =  0.5
+   TNOM =  27
)

.MODEL IRF9242 PMOS (
+   VTO =  3.8775
+   KP =  5.2234e-07
+   LAMBDA =  0
+   PHI =  0.6
+   GAMMA =  0
+   RD =  0.29019
+   RS =  0.01
+   IS =  1e-14
+   CGBO =  0
+   CGDO =  7.2865e-12
+   CGSO =  6.236e-10
+   CBD =  1e-09
+   CBS =  0
+   PB =  0.8
+   RSH =  0
+   CJ =  0
+   MJ =  0.5
+   CJSW =  0
+   MJSW =  0.5
+   JS =  0
+   TOX =  2e-06
+   NSUB =  0
+   NSS =  0
+   TPG =  1
+   LD =  0
+   U0 =  600
+   KF =  0
+   AF =  1
+   FC =  0.5
+   TNOM =  27
)

.MODEL IRF9243 PMOS (
+   VTO =  3.8775
+   KP =  5.2234e-07
+   LAMBDA =  0
+   PHI =  0.6
+   GAMMA =  0
+   RD =  0.29019
+   RS =  0.01
+   IS =  1e-14
+   CGBO =  0
+   CGDO =  9.7491e-12
+   CGSO =  6.2341e-10
+   CBD =  1.4204e-09
+   CBS =  0
+   PB =  0.8
+   RSH =  0
+   CJ =  0
+   MJ =  0.5
+   CJSW =  0
+   MJSW =  0.5
+   JS =  0
+   TOX =  2e-06
+   NSUB =  0
+   NSS =  0
+   TPG =  1
+   LD =  0
+   U0 =  600
+   KF =  0
+   AF =  1
+   FC =  0.5
+   TNOM =  27
)

.MODEL IRF9511 PMOS (
+   VTO =  4.727
+   KP =  5.1544e-07
+   LAMBDA =  0
+   PHI =  0.6
+   GAMMA =  0
+   RD =  0.49364
+   RS =  0.01
+   IS =  1e-14
+   CGBO =  0
+   CGDO =  4.8088e-11
+   CGSO =  2.1347e-10
+   CBD =  1.1673e-10
+   CBS =  0
+   PB =  0.8
+   RSH =  0
+   CJ =  0
+   MJ =  0.5
+   CJSW =  0
+   MJSW =  0.5
+   JS =  0
+   TOX =  2e-06
+   NSUB =  0
+   NSS =  0
+   TPG =  1
+   LD =  0
+   U0 =  600
+   KF =  0
+   AF =  1
+   FC =  0.5
+   TNOM =  27
)

.MODEL IRF9513 PMOS (
+   VTO =  4.727
+   KP =  5.1544e-07
+   LAMBDA =  0
+   PHI =  0.6
+   GAMMA =  0
+   RD =  0.69364
+   RS =  0.01
+   IS =  1e-14
+   CGBO =  0
+   CGDO =  4.8088e-11
+   CGSO =  2.1347e-10
+   CBD =  1.1673e-10
+   CBS =  0
+   PB =  0.8
+   RSH =  0
+   CJ =  0
+   MJ =  0.5
+   CJSW =  0
+   MJSW =  0.5
+   JS =  0
+   TOX =  2e-06
+   NSUB =  0
+   NSS =  0
+   TPG =  1
+   LD =  0
+   U0 =  600
+   KF =  0
+   AF =  1
+   FC =  0.5
+   TNOM =  27
)

.MODEL IRF9521 PMOS (
+   VTO =  2.7944
+   KP =  5.1738e-07
+   LAMBDA =  0
+   PHI =  0.6
+   GAMMA =  0
+   RD =  0.24041
+   RS =  0.01
+   IS =  1e-14
+   CGBO =  0
+   CGDO =  5.0381e-11
+   CGSO =  4.8067e-10
+   CBD =  5.3635e-10
+   CBS =  0
+   PB =  0.8
+   RSH =  0
+   CJ =  0
+   MJ =  0.5
+   CJSW =  0
+   MJSW =  0.5
+   JS =  0
+   TOX =  2e-06
+   NSUB =  0
+   NSS =  0
+   TPG =  1
+   LD =  0
+   U0 =  600
+   KF =  0
+   AF =  1
+   FC =  0.5
+   TNOM =  27
)

.MODEL IRF9522 PMOS (
+   VTO =  2.7944
+   KP =  5.1738e-07
+   LAMBDA =  0
+   PHI =  0.6
+   GAMMA =  0
+   RD =  0.24041
+   RS =  0.01
+   IS =  1e-14
+   CGBO =  0
+   CGDO =  3.9831e-11
+   CGSO =  4.8526e-10
+   CBD =  6.5255e-10
+   CBS =  0
+   PB =  0.8
+   RSH =  0
+   CJ =  0
+   MJ =  0.5
+   CJSW =  0
+   MJSW =  0.5
+   JS =  0
+   TOX =  2e-06
+   NSUB =  0
+   NSS =  0
+   TPG =  1
+   LD =  0
+   U0 =  600
+   KF =  0
+   AF =  1
+   FC =  0.5
+   TNOM =  27
)

.MODEL IRF9523 PMOS (
+   VTO =  2.7944
+   KP =  5.1738e-07
+   LAMBDA =  0
+   PHI =  0.6
+   GAMMA =  0
+   RD =  0.24041
+   RS =  0.01
+   IS =  1e-14
+   CGBO =  0
+   CGDO =  5.0381e-11
+   CGSO =  4.8067e-10
+   CBD =  5.3635e-10
+   CBS =  0
+   PB =  0.8
+   RSH =  0
+   CJ =  0
+   MJ =  0.5
+   CJSW =  0
+   MJSW =  0.5
+   JS =  0
+   TOX =  2e-06
+   NSUB =  0
+   NSS =  0
+   TPG =  1
+   LD =  0
+   U0 =  600
+   KF =  0
+   AF =  1
+   FC =  0.5
+   TNOM =  27
)

.MODEL IRF9531 PMOS (
+   VTO =  2.8766
+   KP =  5.2185e-07
+   LAMBDA =  0
+   PHI =  0.6
+   GAMMA =  0
+   RD =  0.11474
+   RS =  0.01
+   IS =  1e-14
+   CGBO =  0
+   CGDO =  4.317e-11
+   CGSO =  3.4068e-10
+   CBD =  6.9231e-10
+   CBS =  0
+   PB =  0.8
+   RSH =  0
+   CJ =  0
+   MJ =  0.5
+   CJSW =  0
+   MJSW =  0.5
+   JS =  0
+   TOX =  2e-06
+   NSUB =  0
+   NSS =  0
+   TPG =  1
+   LD =  0
+   U0 =  600
+   KF =  0
+   AF =  1
+   FC =  0.5
+   TNOM =  27
)

.MODEL IRF9532 PMOS (
+   VTO =  2.8766
+   KP =  5.2185e-07
+   LAMBDA =  0
+   PHI =  0.6
+   GAMMA =  0
+   RD =  0.11474
+   RS =  0.01
+   IS =  1e-14
+   CGBO =  0
+   CGDO =  3.4133e-11
+   CGSO =  3.4264e-10
+   CBD =  8.8602e-10
+   CBS =  0
+   PB =  0.8
+   RSH =  0
+   CJ =  0
+   MJ =  0.5
+   CJSW =  0
+   MJSW =  0.5
+   JS =  0
+   TOX =  2e-06
+   NSUB =  0
+   NSS =  0
+   TPG =  1
+   LD =  0
+   U0 =  600
+   KF =  0
+   AF =  1
+   FC =  0.5
+   TNOM =  27
)

.MODEL IRF9533 PMOS (
+   VTO =  2.8766
+   KP =  5.2185e-07
+   LAMBDA =  0
+   PHI =  0.6
+   GAMMA =  0
+   RD =  0.11474
+   RS =  0.01
+   IS =  1e-14
+   CGBO =  0
+   CGDO =  4.317e-11
+   CGSO =  3.4068e-10
+   CBD =  6.9231e-10
+   CBS =  0
+   PB =  0.8
+   RSH =  0
+   CJ =  0
+   MJ =  0.5
+   CJSW =  0
+   MJSW =  0.5
+   JS =  0
+   TOX =  2e-06
+   NSUB =  0
+   NSS =  0
+   TPG =  1
+   LD =  0
+   U0 =  600
+   KF =  0
+   AF =  1
+   FC =  0.5
+   TNOM =  27
)

.MODEL IRF9541 PMOS (
+   VTO =  3.6583
+   KP =  5.2457e-07
+   LAMBDA =  0
+   PHI =  0.6
+   GAMMA =  0
+   RD =  0.10509
+   RS =  0.01
+   IS =  1e-14
+   CGBO =  0
+   CGDO =  5.0128e-11
+   CGSO =  8.2428e-11
+   CBD =  1e-18
+   CBS =  0
+   PB =  0.8
+   RSH =  0
+   CJ =  0
+   MJ =  0.5
+   CJSW =  0
+   MJSW =  0.5
+   JS =  0
+   TOX =  2e-06
+   NSUB =  0
+   NSS =  0
+   TPG =  1
+   LD =  0
+   U0 =  600
+   KF =  0
+   AF =  1
+   FC =  0.5
+   TNOM =  27
)

.MODEL IRF9542 PMOS (
+   VTO =  3.6583
+   KP =  5.2457e-07
+   LAMBDA =  0
+   PHI =  0.6
+   GAMMA =  0
+   RD =  0.10509
+   RS =  0.01
+   IS =  1e-14
+   CGBO =  0
+   CGDO =  3.9854e-11
+   CGSO =  8.2999e-11
+   CBD =  8.1138e-11
+   CBS =  0
+   PB =  0.8
+   RSH =  0
+   CJ =  0
+   MJ =  0.5
+   CJSW =  0
+   MJSW =  0.5
+   JS =  0
+   TOX =  2e-06
+   NSUB =  0
+   NSS =  0
+   TPG =  1
+   LD =  0
+   U0 =  600
+   KF =  0
+   AF =  1
+   FC =  0.5
+   TNOM =  27
)

.MODEL IRF9543 PMOS (
+   VTO =  3.6583
+   KP =  5.2457e-07
+   LAMBDA =  0
+   PHI =  0.6
+   GAMMA =  0
+   RD =  0.10509
+   RS =  0.01
+   IS =  1e-14
+   CGBO =  0
+   CGDO =  5.0128e-11
+   CGSO =  8.2428e-11
+   CBD =  1e-18
+   CBS =  0
+   PB =  0.8
+   RSH =  0
+   CJ =  0
+   MJ =  0.5
+   CJSW =  0
+   MJSW =  0.5
+   JS =  0
+   TOX =  2e-06
+   NSUB =  0
+   NSS =  0
+   TPG =  1
+   LD =  0
+   U0 =  600
+   KF =  0
+   AF =  1
+   FC =  0.5
+   TNOM =  27
)

.MODEL IRF9621 PMOS (
+   VTO =  3.6554
+   KP =  5.2091e-07
+   LAMBDA =  0
+   PHI =  0.6
+   GAMMA =  0
+   RD =  0.84649
+   RS =  0.01
+   IS =  1e-14
+   CGBO =  0
+   CGDO =  1.3749e-11
+   CGSO =  3.023e-10
+   CBD =  1.665e-09
+   CBS =  0
+   PB =  0.8
+   RSH =  0
+   CJ =  0
+   MJ =  0.5
+   CJSW =  0
+   MJSW =  0.5
+   JS =  0
+   TOX =  2e-06
+   NSUB =  0
+   NSS =  0
+   TPG =  1
+   LD =  0
+   U0 =  600
+   KF =  0
+   AF =  1
+   FC =  0.5
+   TNOM =  27
)

.MODEL IRF9622 PMOS (
+   VTO =  3.6554
+   KP =  5.2091e-07
+   LAMBDA =  0
+   PHI =  0.6
+   GAMMA =  0
+   RD =  0.84649
+   RS =  0.01
+   IS =  1e-14
+   CGBO =  0
+   CGDO =  1.0277e-11
+   CGSO =  3.0311e-10
+   CBD =  1.7441e-09
+   CBS =  0
+   PB =  0.8
+   RSH =  0
+   CJ =  0
+   MJ =  0.5
+   CJSW =  0
+   MJSW =  0.5
+   JS =  0
+   TOX =  2e-06
+   NSUB =  0
+   NSS =  0
+   TPG =  1
+   LD =  0
+   U0 =  600
+   KF =  0
+   AF =  1
+   FC =  0.5
+   TNOM =  27
)

.MODEL IRF9623 PMOS (
+   VTO =  3.6554
+   KP =  5.2091e-07
+   LAMBDA =  0
+   PHI =  0.6
+   GAMMA =  0
+   RD =  0.84649
+   RS =  0.01
+   IS =  1e-14
+   CGBO =  0
+   CGDO =  1.3749e-11
+   CGSO =  3.023e-10
+   CBD =  1.665e-09
+   CBS =  0
+   PB =  0.8
+   RSH =  0
+   CJ =  0
+   MJ =  0.5
+   CJSW =  0
+   MJSW =  0.5
+   JS =  0
+   TOX =  2e-06
+   NSUB =  0
+   NSS =  0
+   TPG =  1
+   LD =  0
+   U0 =  600
+   KF =  0
+   AF =  1
+   FC =  0.5
+   TNOM =  27
)

.MODEL IRF9631 PMOS (
+   VTO =  3.5521
+   KP =  5.1486e-07
+   LAMBDA =  0
+   PHI =  0.6
+   GAMMA =  0
+   RD =  0.40505
+   RS =  0.01
+   IS =  1e-14
+   CGBO =  0
+   CGDO =  1.5057e-11
+   CGSO =  3.6225e-10
+   CBD =  3.6402e-10
+   CBS =  0
+   PB =  0.8
+   RSH =  0
+   CJ =  0
+   MJ =  0.5
+   CJSW =  0
+   MJSW =  0.5
+   JS =  0
+   TOX =  2e-06
+   NSUB =  0
+   NSS =  0
+   TPG =  1
+   LD =  0
+   U0 =  600
+   KF =  0
+   AF =  1
+   FC =  0.5
+   TNOM =  27
)

.MODEL IRF9632 PMOS (
+   VTO =  3.5521
+   KP =  5.1486e-07
+   LAMBDA =  0
+   PHI =  0.6
+   GAMMA =  0
+   RD =  0.40505
+   RS =  0.01
+   IS =  1e-14
+   CGBO =  0
+   CGDO =  1.1252e-11
+   CGSO =  3.6277e-10
+   CBD =  5.1181e-10
+   CBS =  0
+   PB =  0.8
+   RSH =  0
+   CJ =  0
+   MJ =  0.5
+   CJSW =  0
+   MJSW =  0.5
+   JS =  0
+   TOX =  2e-06
+   NSUB =  0
+   NSS =  0
+   TPG =  1
+   LD =  0
+   U0 =  600
+   KF =  0
+   AF =  1
+   FC =  0.5
+   TNOM =  27
)

.MODEL IRF9633 PMOS (
+   VTO =  3.5521
+   KP =  5.1486e-07
+   LAMBDA =  0
+   PHI =  0.6
+   GAMMA =  0
+   RD =  0.40505
+   RS =  0.01
+   IS =  1e-14
+   CGBO =  0
+   CGDO =  1.5057e-11
+   CGSO =  3.6225e-10
+   CBD =  3.6402e-10
+   CBS =  0
+   PB =  0.8
+   RSH =  0
+   CJ =  0
+   MJ =  0.5
+   CJSW =  0
+   MJSW =  0.5
+   JS =  0
+   TOX =  2e-06
+   NSUB =  0
+   NSS =  0
+   TPG =  1
+   LD =  0
+   U0 =  600
+   KF =  0
+   AF =  1
+   FC =  0.5
+   TNOM =  27
)

.MODEL IRF9641 PMOS (
+   VTO =  3.8775
+   KP =  5.2234e-07
+   LAMBDA =  0
+   PHI =  0.6
+   GAMMA =  0
+   RD =  0.29019
+   RS =  0.01
+   IS =  1e-14
+   CGBO =  0
+   CGDO =  9.7491e-12
+   CGSO =  6.2341e-10
+   CBD =  1.4204e-09
+   CBS =  0
+   PB =  0.8
+   RSH =  0
+   CJ =  0
+   MJ =  0.5
+   CJSW =  0
+   MJSW =  0.5
+   JS =  0
+   TOX =  2e-06
+   NSUB =  0
+   NSS =  0
+   TPG =  1
+   LD =  0
+   U0 =  600
+   KF =  0
+   AF =  1
+   FC =  0.5
+   TNOM =  27
)

.MODEL IRF9642 PMOS (
+   VTO =  4.408
+   KP =  5.2234e-07
+   LAMBDA =  0
+   PHI =  0.6
+   GAMMA =  0
+   RD =  0.28513
+   RS =  0.01
+   IS =  1e-14
+   CGBO =  0
+   CGDO =  7.2865e-12
+   CGSO =  5.7334e-10
+   CBD =  1.598e-09
+   CBS =  0
+   PB =  0.8
+   RSH =  0
+   CJ =  0
+   MJ =  0.5
+   CJSW =  0
+   MJSW =  0.5
+   JS =  0
+   TOX =  2e-06
+   NSUB =  0
+   NSS =  0
+   TPG =  1
+   LD =  0
+   U0 =  600
+   KF =  0
+   AF =  1
+   FC =  0.5
+   TNOM =  27
)

.MODEL IRF9643 PMOS (
+   VTO =  3.8775
+   KP =  5.2234e-07
+   LAMBDA =  0
+   PHI =  0.6
+   GAMMA =  0
+   RD =  0.29019
+   RS =  0.01
+   IS =  1e-14
+   CGBO =  0
+   CGDO =  9.7491e-12
+   CGSO =  6.2341e-10
+   CBD =  1.4204e-09
+   CBS =  0
+   PB =  0.8
+   RSH =  0
+   CJ =  0
+   MJ =  0.5
+   CJSW =  0
+   MJSW =  0.5
+   JS =  0
+   TOX =  2e-06
+   NSUB =  0
+   NSS =  0
+   TPG =  1
+   LD =  0
+   U0 =  600
+   KF =  0
+   AF =  1
+   FC =  0.5
+   TNOM =  27
)

.MODEL IRFD9113 PMOS (
+   VTO =  5.829
+   KP =  5.2547e-07
+   LAMBDA =  0
+   PHI =  0.6
+   GAMMA =  0
+   RD =  0.6198
+   RS =  0.01
+   IS =  1e-14
+   CGBO =  0
+   CGDO =  3.3417e-11
+   CGSO =  2.649e-10
+   CBD =  5.5903e-11
+   CBS =  0
+   PB =  0.8
+   RSH =  0
+   CJ =  0
+   MJ =  0.5
+   CJSW =  0
+   MJSW =  0.5
+   JS =  0
+   TOX =  2e-06
+   NSUB =  0
+   NSS =  0
+   TPG =  1
+   LD =  0
+   U0 =  600
+   KF =  0
+   AF =  1
+   FC =  0.5
+   TNOM =  27
)

.MODEL IRFD9123 PMOS (
+   VTO =  3.419
+   KP =  5.1222e-07
+   LAMBDA =  0
+   PHI =  0.6
+   GAMMA =  0
+   RD =  0.4233
+   RS =  0.01
+   IS =  1e-14
+   CGBO =  0
+   CGDO =  8.5592e-09
+   CGSO =  2.7778e-15
+   CBD =  4.326e-10
+   CBS =  0
+   PB =  0.8
+   RSH =  0
+   CJ =  0
+   MJ =  0.5
+   CJSW =  0
+   MJSW =  0.5
+   JS =  0
+   TOX =  2e-06
+   NSUB =  0
+   NSS =  0
+   TPG =  1
+   LD =  0
+   U0 =  600
+   KF =  0
+   AF =  1
+   FC =  0.5
+   TNOM =  27
)

.MODEL IRFD9220 PMOS (
+   VTO =  4.0916
+   KP =  5.1531e-07
+   LAMBDA =  0
+   PHI =  0.6
+   GAMMA =  0
+   RD =  0.89017
+   RS =  0.01
+   IS =  1e-14
+   CGBO =  0
+   CGDO =  3.7865e-12
+   CGSO =  2.7213e-10
+   CBD =  4.277e-10
+   CBS =  0
+   PB =  0.8
+   RSH =  0
+   CJ =  0
+   MJ =  0.5
+   CJSW =  0
+   MJSW =  0.5
+   JS =  0
+   TOX =  2e-06
+   NSUB =  0
+   NSS =  0
+   TPG =  1
+   LD =  0
+   U0 =  600
+   KF =  0
+   AF =  1
+   FC =  0.5
+   TNOM =  27
)

.MODEL IRFD9223 PMOS (
+   VTO =  4.0916
+   KP =  5.1531e-07
+   LAMBDA =  0
+   PHI =  0.6
+   GAMMA =  0
+   RD =  0.89017
+   RS =  0.01
+   IS =  1e-14
+   CGBO =  0
+   CGDO =  5.048e-12
+   CGSO =  2.7193e-10
+   CBD =  3.8175e-10
+   CBS =  0
+   PB =  0.8
+   RSH =  0
+   CJ =  0
+   MJ =  0.5
+   CJSW =  0
+   MJSW =  0.5
+   JS =  0
+   TOX =  2e-06
+   NSUB =  0
+   NSS =  0
+   TPG =  1
+   LD =  0
+   U0 =  600
+   KF =  0
+   AF =  1
+   FC =  0.5
+   TNOM =  27
)

.MODEL IRFF9133 PMOS (
+   VTO =  3.7714
+   KP =  5.1587e-07
+   LAMBDA =  0
+   PHI =  0.6
+   GAMMA =  0
+   RD =  0.16506
+   RS =  0.01
+   IS =  1e-14
+   CGBO =  0
+   CGDO =  2.2601e-11
+   CGSO =  2.0923e-10
+   CBD =  1.8411e-09
+   CBS =  0
+   PB =  0.8
+   RSH =  0
+   CJ =  0
+   MJ =  0.5
+   CJSW =  0
+   MJSW =  0.5
+   JS =  0
+   TOX =  2e-06
+   NSUB =  0
+   NSS =  0
+   TPG =  1
+   LD =  0
+   U0 =  600
+   KF =  0
+   AF =  1
+   FC =  0.5
+   TNOM =  27
)

.MODEL IRFF9141 PMOS (
+   VTO =  2.9373
+   KP =  5.2554e-07
+   LAMBDA =  0
+   PHI =  0.6
+   GAMMA =  0
+   RD =  0.089799
+   RS =  0.01
+   IS =  1e-14
+   CGBO =  0
+   CGDO =  2.5475e-11
+   CGSO =  6.4674e-11
+   CBD =  1.6254e-09
+   CBS =  0
+   PB =  0.8
+   RSH =  0
+   CJ =  0
+   MJ =  0.5
+   CJSW =  0
+   MJSW =  0.5
+   JS =  0
+   TOX =  2e-06
+   NSUB =  0
+   NSS =  0
+   TPG =  1
+   LD =  0
+   U0 =  600
+   KF =  0
+   AF =  1
+   FC =  0.5
+   TNOM =  27
)

.MODEL IRFF9142 PMOS (
+   VTO =  2.9373
+   KP =  5.2554e-07
+   LAMBDA =  0
+   PHI =  0.6
+   GAMMA =  0
+   RD =  0.089799
+   RS =  0.01
+   IS =  1e-14
+   CGBO =  0
+   CGDO =  2.0228e-11
+   CGSO =  6.5049e-11
+   CBD =  1.9003e-09
+   CBS =  0
+   PB =  0.8
+   RSH =  0
+   CJ =  0
+   MJ =  0.5
+   CJSW =  0
+   MJSW =  0.5
+   JS =  0
+   TOX =  2e-06
+   NSUB =  0
+   NSS =  0
+   TPG =  1
+   LD =  0
+   U0 =  600
+   KF =  0
+   AF =  1
+   FC =  0.5
+   TNOM =  27
)

.MODEL IRFF9220 PMOS (
+   VTO =  3.6554
+   KP =  5.2091e-07
+   LAMBDA =  0
+   PHI =  0.6
+   GAMMA =  0
+   RD =  0.84649
+   RS =  0.01
+   IS =  1e-14
+   CGBO =  0
+   CGDO =  1.0252e-11
+   CGSO =  3.2593e-10
+   CBD =  3.2446e-10
+   CBS =  0
+   PB =  0.8
+   RSH =  0
+   CJ =  0
+   MJ =  0.5
+   CJSW =  0
+   MJSW =  0.5
+   JS =  0
+   TOX =  2e-06
+   NSUB =  0
+   NSS =  0
+   TPG =  1
+   LD =  0
+   U0 =  600
+   KF =  0
+   AF =  1
+   FC =  0.5
+   TNOM =  27
)

.MODEL IRFF9221 PMOS (
+   VTO =  3.6554
+   KP =  5.2091e-07
+   LAMBDA =  0
+   PHI =  0.6
+   GAMMA =  0
+   RD =  0.84649
+   RS =  0.01
+   IS =  1e-14
+   CGBO =  0
+   CGDO =  1.3704e-11
+   CGSO =  3.2513e-10
+   CBD =  2.4552e-10
+   CBS =  0
+   PB =  0.8
+   RSH =  0
+   CJ =  0
+   MJ =  0.5
+   CJSW =  0
+   MJSW =  0.5
+   JS =  0
+   TOX =  2e-06
+   NSUB =  0
+   NSS =  0
+   TPG =  1
+   LD =  0
+   U0 =  600
+   KF =  0
+   AF =  1
+   FC =  0.5
+   TNOM =  27
)

.MODEL IRFF9222 PMOS (
+   VTO =  3.6554
+   KP =  5.2091e-07
+   LAMBDA =  0
+   PHI =  0.6
+   GAMMA =  0
+   RD =  0.84649
+   RS =  0.01
+   IS =  1e-14
+   CGBO =  0
+   CGDO =  1.0252e-11
+   CGSO =  3.2593e-10
+   CBD =  3.2446e-10
+   CBS =  0
+   PB =  0.8
+   RSH =  0
+   CJ =  0
+   MJ =  0.5
+   CJSW =  0
+   MJSW =  0.5
+   JS =  0
+   TOX =  2e-06
+   NSUB =  0
+   NSS =  0
+   TPG =  1
+   LD =  0
+   U0 =  600
+   KF =  0
+   AF =  1
+   FC =  0.5
+   TNOM =  27
)

.MODEL IRFF9223 PMOS (
+   VTO =  3.6554
+   KP =  5.2091e-07
+   LAMBDA =  0
+   PHI =  0.6
+   GAMMA =  0
+   RD =  0.84649
+   RS =  0.01
+   IS =  1e-14
+   CGBO =  0
+   CGDO =  1.3679e-11
+   CGSO =  3.3973e-10
+   CBD =  2.4564e-10
+   CBS =  0
+   PB =  0.8
+   RSH =  0
+   CJ =  0
+   MJ =  0.5
+   CJSW =  0
+   MJSW =  0.5
+   JS =  0
+   TOX =  2e-06
+   NSUB =  0
+   NSS =  0
+   TPG =  1
+   LD =  0
+   U0 =  600
+   KF =  0
+   AF =  1
+   FC =  0.5
+   TNOM =  27
)

.MODEL IRFF9230 PMOS (
+   VTO =  6.1404
+   KP =  5.0595e-07
+   LAMBDA =  0
+   PHI =  0.6
+   GAMMA =  0
+   RD =  0.4091
+   RS =  0.01
+   IS =  1e-14
+   CGBO =  0
+   CGDO =  6.2759e-12
+   CGSO =  1.448e-10
+   CBD =  5.1776e-10
+   CBS =  0
+   PB =  0.8
+   RSH =  0
+   CJ =  0
+   MJ =  0.5
+   CJSW =  0
+   MJSW =  0.5
+   JS =  0
+   TOX =  2e-06
+   NSUB =  0
+   NSS =  0
+   TPG =  1
+   LD =  0
+   U0 =  600
+   KF =  0
+   AF =  1
+   FC =  0.5
+   TNOM =  27
)

.MODEL IRFF9231 PMOS (
+   VTO =  6.1404
+   KP =  5.0595e-07
+   LAMBDA =  0
+   PHI =  0.6
+   GAMMA =  0
+   RD =  0.4091
+   RS =  0.01
+   IS =  1e-14
+   CGBO =  0
+   CGDO =  8.3794e-12
+   CGSO =  1.4464e-10
+   CBD =  3.7444e-10
+   CBS =  0
+   PB =  0.8
+   RSH =  0
+   CJ =  0
+   MJ =  0.5
+   CJSW =  0
+   MJSW =  0.5
+   JS =  0
+   TOX =  2e-06
+   NSUB =  0
+   NSS =  0
+   TPG =  1
+   LD =  0
+   U0 =  600
+   KF =  0
+   AF =  1
+   FC =  0.5
+   TNOM =  27
)

.MODEL IRFF9232 PMOS (
+   VTO =  6.1404
+   KP =  5.0595e-07
+   LAMBDA =  0
+   PHI =  0.6
+   GAMMA =  0
+   RD =  0.4091
+   RS =  0.01
+   IS =  1e-14
+   CGBO =  0
+   CGDO =  6.2759e-12
+   CGSO =  1.448e-10
+   CBD =  5.1776e-10
+   CBS =  0
+   PB =  0.8
+   RSH =  0
+   CJ =  0
+   MJ =  0.5
+   CJSW =  0
+   MJSW =  0.5
+   JS =  0
+   TOX =  2e-06
+   NSUB =  0
+   NSS =  0
+   TPG =  1
+   LD =  0
+   U0 =  600
+   KF =  0
+   AF =  1
+   FC =  0.5
+   TNOM =  27
)

.MODEL IRFP9140 PMOS (
+   VTO =  3.2527
+   KP =  5.2554e-07
+   LAMBDA =  0
+   PHI =  0.6
+   GAMMA =  0
+   RD =  0.087765
+   RS =  0.01
+   IS =  1e-14
+   CGBO =  0
+   CGDO =  2.0228e-11
+   CGSO =  6.0122e-11
+   CBD =  1.9119e-09
+   CBS =  0
+   PB =  0.8
+   RSH =  0
+   CJ =  0
+   MJ =  0.5
+   CJSW =  0
+   MJSW =  0.5
+   JS =  0
+   TOX =  2e-06
+   NSUB =  0
+   NSS =  0
+   TPG =  1
+   LD =  0
+   U0 =  600
+   KF =  0
+   AF =  1
+   FC =  0.5
+   TNOM =  27
)

.MODEL IRFP9141 PMOS (
+   VTO =  3.2527
+   KP =  5.2554e-07
+   LAMBDA =  0
+   PHI =  0.6
+   GAMMA =  0
+   RD =  0.087765
+   RS =  0.01
+   IS =  1e-14
+   CGBO =  0
+   CGDO =  2.5475e-11
+   CGSO =  5.9747e-11
+   CBD =  1.6425e-09
+   CBS =  0
+   PB =  0.8
+   RSH =  0
+   CJ =  0
+   MJ =  0.5
+   CJSW =  0
+   MJSW =  0.5
+   JS =  0
+   TOX =  2e-06
+   NSUB =  0
+   NSS =  0
+   TPG =  1
+   LD =  0
+   U0 =  600
+   KF =  0
+   AF =  1
+   FC =  0.5
+   TNOM =  27
)

.MODEL IRFP9143 PMOS (
+   VTO =  3.2527
+   KP =  5.2554e-07
+   LAMBDA =  0
+   PHI =  0.6
+   GAMMA =  0
+   RD =  0.087765
+   RS =  0.01
+   IS =  1e-14
+   CGBO =  0
+   CGDO =  2.5366e-11
+   CGSO =  6.3855e-11
+   CBD =  1.6336e-09
+   CBS =  0
+   PB =  0.8
+   RSH =  0
+   CJ =  0
+   MJ =  0.5
+   CJSW =  0
+   MJSW =  0.5
+   JS =  0
+   TOX =  2e-06
+   NSUB =  0
+   NSS =  0
+   TPG =  1
+   LD =  0
+   U0 =  600
+   KF =  0
+   AF =  1
+   FC =  0.5
+   TNOM =  27
)

.MODEL IRFP9242 PMOS (
+   VTO =  3.571
+   KP =  5.2722e-07
+   LAMBDA =  0
+   PHI =  0.6
+   GAMMA =  0
+   RD =  0.31429
+   RS =  0.01
+   IS =  1e-14
+   CGBO =  0
+   CGDO =  1.2062e-11
+   CGSO =  9.1994e-11
+   CBD =  1.2997e-09
+   CBS =  0
+   PB =  0.8
+   RSH =  0
+   CJ =  0
+   MJ =  0.5
+   CJSW =  0
+   MJSW =  0.5
+   JS =  0
+   TOX =  2e-06
+   NSUB =  0
+   NSS =  0
+   TPG =  1
+   LD =  0
+   U0 =  600
+   KF =  0
+   AF =  1
+   FC =  0.5
+   TNOM =  27
)

.MODEL M2N6804 PMOS (
+   VTO =  2.8649
+   KP =  5.1616e-07
+   LAMBDA =  0
+   PHI =  0.6
+   GAMMA =  0
+   RD =  0.15735
+   RS =  0.01
+   IS =  1e-14
+   CGBO =  0
+   CGDO =  3.5999e-11
+   CGSO =  3.2638e-10
+   CBD =  8.8575e-10
+   CBS =  0
+   PB =  0.8
+   RSH =  0
+   CJ =  0
+   MJ =  0.5
+   CJSW =  0
+   MJSW =  0.5
+   JS =  0
+   TOX =  2e-06
+   NSUB =  0
+   NSS =  0
+   TPG =  1
+   LD =  0
+   U0 =  600
+   KF =  0
+   AF =  1
+   FC =  0.5
+   TNOM =  27
)

.MODEL M2N6849 PMOS (
+   VTO =  3.5256
+   KP =  5.1749e-07
+   LAMBDA =  0
+   PHI =  0.6
+   GAMMA =  0
+   RD =  0.18992
+   RS =  0.01
+   IS =  1e-14
+   CGBO =  0
+   CGDO =  1.6129e-15
+   CGSO =  4.3804e-10
+   CBD =  1.7036e-09
+   CBS =  0
+   PB =  0.8
+   RSH =  0
+   CJ =  0
+   MJ =  0.5
+   CJSW =  0
+   MJSW =  0.5
+   JS =  0
+   TOX =  2e-06
+   NSUB =  0
+   NSS =  0
+   TPG =  1
+   LD =  0
+   U0 =  600
+   KF =  0
+   AF =  1
+   FC =  0.5
+   TNOM =  27
)

.MODEL M2N6851 PMOS (
+   VTO =  4.1269
+   KP =  4.9828e-07
+   LAMBDA =  0
+   PHI =  0.6
+   GAMMA =  0
+   RD =  0.7268
+   RS =  0.01
+   IS =  1e-18
+   CGBO =  0
+   CGDO =  9.0909e-16
+   CGSO =  2.1556e-10
+   CBD =  9.6536e-10
+   CBS =  0
+   PB =  0.8
+   RSH =  0
+   CJ =  0
+   MJ =  0.5
+   CJSW =  0
+   MJSW =  0.5
+   JS =  0
+   TOX =  2e-06
+   NSUB =  0
+   NSS =  0
+   TPG =  1
+   LD =  0
+   U0 =  600
+   KF =  0
+   AF =  1
+   FC =  0.5
+   TNOM =  27
)
