***********************************************
*ELECTRONICS WORKBENCH MODEL FILE             * 
*MODELS GENERATED BY: S.MOORE/R.TALOS         *
*(c) 1996 INTERACTIVE IMAGE TECHNOLOGIES LTD. * 
*TORONTO, ONTARIO (416)977-5550.              *
***********************************************
.MODEL IRF9510 PMOS (
+   VTO =  0.29998
+   KP =  5.1845e-07
+   LAMBDA =  0
+   PHI =  0.6
+   GAMMA =  0
+   RD =  0.70468
+   RS =  0.01
+   IS =  1e-14
+   CGBO =  0
+   CGDO =  6.6876e-11
+   CGSO =  3.4373e-10
+   CBD =  2.6918e-10
+   CBS =  0
+   PB =  0.8
+   RSH =  0
+   CJ =  0
+   MJ =  0.5
+   CJSW =  0
+   MJSW =  0.5
+   JS =  0
+   TOX =  2e-06
+   NSUB =  0
+   NSS =  0
+   TPG =  1
+   LD =  0
+   U0 =  600
+   KF =  0
+   AF =  1
+   FC =  0.5
+   TNOM =  27
)

.MODEL IRF9520 PMOS (
+   VTO =  0.025723
+   KP =  5.0792e-07
+   LAMBDA =  0
+   PHI =  0.6
+   GAMMA =  0
+   RD =  0.38295
+   RS =  0.01
+   IS =  1e-14
+   CGBO =  0
+   CGDO =  5.9425e-11
+   CGSO =  2.242e-10
+   CBD =  4.1654e-10
+   CBS =  0
+   PB =  0.8
+   RSH =  0
+   CJ =  0
+   MJ =  0.5
+   CJSW =  0
+   MJSW =  0.5
+   JS =  0
+   TOX =  2e-06
+   NSUB =  0
+   NSS =  0
+   TPG =  1
+   LD =  0
+   U0 =  600
+   KF =  0
+   AF =  1
+   FC =  0.5
+   TNOM =  27
)

.MODEL IRF9530 PMOS (
+   VTO =  0.98307
+   KP =  5.1258e-07
+   LAMBDA =  0
+   PHI =  0.6
+   GAMMA =  0
+   RD =  0.17569
+   RS =  0.01
+   IS =  1e-14
+   CGBO =  0
+   CGDO =  6.9023e-11
+   CGSO =  2.4023e-10
+   CBD =  6.7772e-10
+   CBS =  0
+   PB =  0.8
+   RSH =  0
+   CJ =  0
+   MJ =  0.5
+   CJSW =  0
+   MJSW =  0.5
+   JS =  0
+   TOX =  2e-06
+   NSUB =  0
+   NSS =  0
+   TPG =  1
+   LD =  0
+   U0 =  600
+   KF =  0
+   AF =  1
+   FC =  0.5
+   TNOM =  27
)

.MODEL IRF9540 PMOS (
+   VTO =  1.6431
+   KP =  5.1582e-07
+   LAMBDA =  0
+   PHI =  0.6
+   GAMMA =  0
+   RD =  0.12623
+   RS =  0.01
+   IS =  1e-14
+   CGBO =  0
+   CGDO =  4.9215e-11
+   CGSO =  2.6123e-10
+   CBD =  1.5055e-09
+   CBS =  0
+   PB =  0.8
+   RSH =  0
+   CJ =  0
+   MJ =  0.5
+   CJSW =  0
+   MJSW =  0.5
+   JS =  0
+   TOX =  2e-06
+   NSUB =  0
+   NSS =  0
+   TPG =  1
+   LD =  0
+   U0 =  600
+   KF =  0
+   AF =  1
+   FC =  0.5
+   TNOM =  27
)

.MODEL IRF9620 PMOS (
+   VTO =  1.7698
+   KP =  5.2323e-07
+   LAMBDA =  0
+   PHI =  0.6
+   GAMMA =  0
+   RD =  1.1196
+   RS =  0.01
+   IS =  1e-14
+   CGBO =  0
+   CGDO =  4.9294e-11
+   CGSO =  1.322e-09
+   CBD =  2.1674e-10
+   CBS =  0
+   PB =  0.8
+   RSH =  0
+   CJ =  0
+   MJ =  0.5
+   CJSW =  0
+   MJSW =  0.5
+   JS =  0
+   TOX =  2e-06
+   NSUB =  0
+   NSS =  0
+   TPG =  1
+   LD =  0
+   U0 =  600
+   KF =  0
+   AF =  1
+   FC =  0.5
+   TNOM =  27
)

.MODEL IRF9630 PMOS (
+   VTO =  3.3426
+   KP =  5.1896e-07
+   LAMBDA =  0
+   PHI =  0.6
+   GAMMA =  0
+   RD =  0.64148
+   RS =  0.01
+   IS =  1e-14
+   CGBO =  0
+   CGDO =  2.3243e-11
+   CGSO =  1.524e-10
+   CBD =  6.5445e-10
+   CBS =  0
+   PB =  0.8
+   RSH =  0
+   CJ =  0
+   MJ =  0.5
+   CJSW =  0
+   MJSW =  0.5
+   JS =  0
+   TOX =  2e-06
+   NSUB =  0
+   NSS =  0
+   TPG =  1
+   LD =  0
+   U0 =  600
+   KF =  0
+   AF =  1
+   FC =  0.5
+   TNOM =  27
)

.MODEL IRF9640 PMOS (
+   VTO =  -5.096
+   KP =  5.2253e-07
+   LAMBDA =  0
+   PHI =  0.6
+   GAMMA =  0
+   RD =  0.44143
+   RS =  0.01
+   IS =  1e-14
+   CGBO =  0
+   CGDO =  3.2466e-11
+   CGSO =  1.8868e-15
+   CBD =  1.5975e-09
+   CBS =  0
+   PB =  0.8
+   RSH =  0
+   CJ =  0
+   MJ =  0.5
+   CJSW =  0
+   MJSW =  0.5
+   JS =  0
+   TOX =  2e-06
+   NSUB =  0
+   NSS =  0
+   TPG =  1
+   LD =  0
+   U0 =  600
+   KF =  0
+   AF =  1
+   FC =  0.5
+   TNOM =  27
)

.MODEL IRFD9110 PMOS (
+   VTO =  -0.45884
+   KP =  5.2051e-07
+   LAMBDA =  0
+   PHI =  0.6
+   GAMMA =  0
+   RD =  0.6593
+   RS =  0.01
+   IS =  1e-14
+   CGBO =  0
+   CGDO =  7.8859e-11
+   CGSO =  3.6237e-10
+   CBD =  2.7229e-10
+   CBS =  0
+   PB =  0.8
+   RSH =  0
+   CJ =  0
+   MJ =  0.5
+   CJSW =  0
+   MJSW =  0.5
+   JS =  0
+   TOX =  2e-06
+   NSUB =  0
+   NSS =  0
+   TPG =  1
+   LD =  0
+   U0 =  600
+   KF =  0
+   AF =  1
+   FC =  0.5
+   TNOM =  27
)

.MODEL IRFD9120 PMOS (
+   VTO =  1.7046
+   KP =  5.3264e-07
+   LAMBDA =  0
+   PHI =  0.6
+   GAMMA =  0
+   RD =  0.30393
+   RS =  0.01
+   IS =  1e-14
+   CGBO =  0
+   CGDO =  7.475e-11
+   CGSO =  1.7371e-10
+   CBD =  4.6562e-10
+   CBS =  0
+   PB =  0.8
+   RSH =  0
+   CJ =  0
+   MJ =  0.5
+   CJSW =  0
+   MJSW =  0.5
+   JS =  0
+   TOX =  2e-06
+   NSUB =  0
+   NSS =  0
+   TPG =  1
+   LD =  0
+   U0 =  600
+   KF =  0
+   AF =  1
+   FC =  0.5
+   TNOM =  27
)

.MODEL IRFP9240 PMOS (
+   VTO =  2.8302
+   KP =  5.1337e-07
+   LAMBDA =  0
+   PHI =  0.6
+   GAMMA =  0
+   RD =  0.3781
+   RS =  0.01
+   IS =  1e-14
+   CGBO =  0
+   CGDO =  3.3106e-11
+   CGSO =  1.5727e-10
+   CBD =  1.2675e-09
+   CBS =  0
+   PB =  0.8
+   RSH =  0
+   CJ =  0
+   MJ =  0.5
+   CJSW =  0
+   MJSW =  0.5
+   JS =  0
+   TOX =  2e-06
+   NSUB =  0
+   NSS =  0
+   TPG =  1
+   LD =  0
+   U0 =  600
+   KF =  0
+   AF =  1
+   FC =  0.5
+   TNOM =  27
)
