***************************************************
*ELECTRONICS WORKBENCH MODEL FILE                 * 
*MODELS GENERATED BY: A.MICHEAL/S.IRELAND/R.TALOS *
*(c) 1996 INTERACTIVE IMAGE TECHNOLOGIES LTD.     * 
*TORONTO, ONTARIO (416)977-5550.                  *
***************************************************
.MODEL J1RFD9120 PJF (
+   VTO =  -3
+   BETA =  0.05
+   LAMBDA =  0.005
+   RD =  1
+   RS =  1
+   IS =  1e-14
+   CGD =  5.099e-10
+   CGS =  3.5e-10
+   PB =  1
+   B =  1
+   KF =  1e-18
+   AF =  1
+   FC =  0.5
+   TNOM =  27
)

.MODEL J1RFD9123 PJF (
+   VTO =  -2.5
+   BETA =  0.04
+   LAMBDA =  0.005
+   RD =  1
+   RS =  1
+   IS =  1e-14
+   CGD =  5.099e-10
+   CGS =  3.5e-10
+   PB =  1
+   B =  1
+   KF =  1e-18
+   AF =  1
+   FC =  0.5
+   TNOM =  27
)

.MODEL J2N5461 PJF (
+   VTO =  -2.6
+   BETA =  0.001
+   LAMBDA =  0.006
+   RD =  1
+   RS =  1
+   IS =  5.3389e-11
+   CGD =  4e-12
+   CGS =  4e-12
+   PB =  1
+   B =  1
+   KF =  1e-18
+   AF =  1
+   FC =  0.5
+   TNOM =  27
)

.MODEL J2N5462 PJF (
+   VTO =  -2.5
+   BETA =  0.001
+   LAMBDA =  0.005
+   RD =  1
+   RS =  1
+   IS =  5.3389e-11
+   CGD =  4e-12
+   CGS =  4e-12
+   PB =  1
+   B =  1
+   KF =  1e-18
+   AF =  1
+   FC =  0.5
+   TNOM =  27
)

.MODEL MMBF5460 PJF (
+   VTO =  -2.9
+   BETA =  0.001
+   LAMBDA =  0.005
+   RD =  1
+   RS =  1
+   IS =  5.3389e-11
+   CGD =  1e-12
+   CGS =  5e-12
+   PB =  1
+   B =  1
+   KF =  1e-18
+   AF =  1
+   FC =  0.5
+   TNOM =  27
)

.MODEL MMBFJ175LT1 PJF (
+   VTO =  -2.3
+   BETA =  0.002
+   LAMBDA =  0.006
+   RD =  1
+   RS =  1
+   IS =  1.0678e-11
+   CGD =  3.6483e-11
+   CGS =  0
+   PB =  1
+   B =  1
+   KF =  1e-18
+   AF =  1
+   FC =  0.5
+   TNOM =  27
)

.MODEL MMBFJ177LT1 PJF (
+   VTO =  -2
+   BETA =  0.0025
+   LAMBDA =  0.005
+   RD =  1
+   RS =  1
+   IS =  1.0678e-11
+   CGD =  1.8241e-11
+   CGS =  1.8241e-11
+   PB =  1
+   B =  1
+   KF =  1e-18
+   AF =  1
+   FC =  0.5
+   TNOM =  27
)

.MODEL MPF970 PJF (
+   VTO =  -8
+   BETA =  0.00142
+   LAMBDA =  0.005
+   RD =  1
+   RS =  1
+   IS =  1.2195e-11
+   CGD =  1.8028e-11
+   CGS =  2.5239e-11
+   PB =  1
+   B =  1
+   KF =  1e-18
+   AF =  1
+   FC =  0.5
+   TNOM =  27
)

.MODEL MPF971 PJF (
+   VTO =  -3.6
+   BETA =  0.003
+   LAMBDA =  0.006
+   RD =  1
+   RS =  1
+   IS =  1.2195e-11
+   CGD =  1.8028e-11
+   CGS =  2.5239e-11
+   PB =  1
+   B =  1
+   KF =  1e-18
+   AF =  1
+   FC =  0.5
+   TNOM =  27
)
