***********************************************
*ELECTRONICS WORKBENCH MODEL FILE             * 
*MODELS GENERATED BY: R.TALOS                 *
*(c) 1996 INTERACTIVE IMAGE TECHNOLOGIES LTD. * 
*TORONTO, ONTARIO (416)977-5550.              *
***********************************************
.MODEL J2N2608 PJF (
+   VTO =  -2.5
+   BETA =  0.0007019
+   LAMBDA =  0.005
+   RD =  1
+   RS =  1
+   IS =  8.8218e-11
+   CGD =  2.8e-11
+   CGS =  9.075e-12
+   PB =  1
+   B =  1
+   KF =  1e-18
+   AF =  1
+   FC =  0.5
+   TNOM =  27
)

.MODEL J2N2609 PJF (
+   VTO =  -2.5
+   BETA =  0.0015
+   LAMBDA =  0.005
+   RD =  1
+   RS =  1
+   IS =  2.6465e-10
+   CGD =  2.8e-11
+   CGS =  2.746e-11
+   PB =  1
+   B =  1
+   KF =  1e-18
+   AF =  1
+   FC =  0.5
+   TNOM =  27
)

.MODEL J2N3329 PJF (
+   VTO =  -2.75
+   BETA =  0.00036
+   LAMBDA =  0.005
+   RD =  1
+   RS =  1
+   IS =  1e-14
+   CGD =  1e-12
+   CGS =  1e-12
+   PB =  1
+   B =  1
+   KF =  1e-18
+   AF =  1
+   FC =  0.5
+   TNOM =  27
)

.MODEL J2N3330 PJF (
+   VTO =  -4
+   BETA =  0.00031
+   LAMBDA =  0.006
+   RD =  1
+   RS =  1
+   IS =  1.4634e-10
+   CGD =  5e-12
+   CGS =  2e-11
+   PB =  1
+   B =  1
+   KF =  1e-18
+   AF =  1
+   FC =  0.5
+   TNOM =  27
)

.MODEL J2N3331 PJF (
+   VTO =  -5.2
+   BETA =  0.0004636
+   LAMBDA =  0.005
+   RD =  1
+   RS =  1
+   IS =  1.4634e-10
+   CGD =  2e-11
+   CGS =  2.1424e-11
+   PB =  1
+   B =  1
+   KF =  1e-18
+   AF =  1
+   FC =  0.5
+   TNOM =  27
)

.MODEL J2N3332 PJF (
+   VTO =  -4.5
+   BETA =  0.0002805
+   LAMBDA =  0.005
+   RD =  1
+   RS =  1
+   IS =  1.4634e-10
+   CGD =  2e-11
+   CGS =  2.1424e-11
+   PB =  1
+   B =  1
+   KF =  1e-18
+   AF =  1
+   FC =  0.5
+   TNOM =  27
)

.MODEL J2N3820 PJF (
+   VTO =  -6
+   BETA =  0.000326
+   LAMBDA =  0.0058
+   RD =  1
+   RS =  1
+   IS =  2.9268e-10
+   CGD =  5.3066e-11
+   CGS =  0
+   PB =  1
+   B =  1
+   KF =  1e-18
+   AF =  1
+   FC =  0.5
+   TNOM =  27
)

.MODEL J2N4381 PJF (
+   VTO =  -3.5
+   BETA =  0.0009
+   LAMBDA =  0.005
+   RD =  1
+   RS =  1
+   IS =  1.2195e-11
+   CGD =  2e-11
+   CGS =  1.5e-11
+   PB =  1
+   B =  1
+   KF =  1e-18
+   AF =  1
+   FC =  0.5
+   TNOM =  27
)

.MODEL J2N5020 PJF (
+   VTO =  -1.2
+   BETA =  0.00075
+   LAMBDA =  0.005
+   RD =  1
+   RS =  1
+   IS =  1.2195e-11
+   CGD =  2.8e-11
+   CGS =  1.8e-11
+   PB =  1
+   B =  1
+   KF =  1e-18
+   AF =  1
+   FC =  0.5
+   TNOM =  27
)

.MODEL J2N5021 PJF (
+   VTO =  -1.75
+   BETA =  0.001
+   LAMBDA =  0.005
+   RD =  1
+   RS =  1
+   IS =  1.2195e-11
+   CGD =  2.8e-11
+   CGS =  1.8e-11
+   PB =  1
+   B =  1
+   KF =  1e-18
+   AF =  1
+   FC =  0.5
+   TNOM =  27
)

.MODEL J2N5461 PJF (
+   VTO =  -5
+   BETA =  0.0003
+   LAMBDA =  0.005
+   RD =  1
+   RS =  1
+   IS =  5.3389e-11
+   CGD =  8e-12
+   CGS =  5e-12
+   PB =  1
+   B =  1
+   KF =  1e-18
+   AF =  1
+   FC =  0.5
+   TNOM =  27
)

.MODEL J2N5462 PJF (
+   VTO =  -5.5
+   BETA =  0.00049
+   LAMBDA =  0.005
+   RD =  1
+   RS =  1
+   IS =  5.3389e-11
+   CGD =  8e-12
+   CGS =  5e-12
+   PB =  1
+   B =  1
+   KF =  1e-18
+   AF =  1
+   FC =  0.5
+   TNOM =  27
)
