***********************************************
*ELECTRONICS WORKBENCH MODEL FILE             * 
*MODELS GENERATED BY: S.MOORE/R.TALOS         *
*(c) 1996 INTERACTIVE IMAGE TECHNOLOGIES LTD. * 
*TORONTO, ONTARIO (416)977-5550.              *
***********************************************
.MODEL IRF120 NMOS (
+   VTO =  3.4386
+   KP =  1.0406e-06
+   LAMBDA =  0
+   PHI =  0.6
+   GAMMA =  0
+   RD =  0.16363
+   RS =  0.01
+   IS =  0.00064606
+   CGBO =  0
+   CGDO =  7.3174e-12
+   CGSO =  5.915e-11
+   CBD =  6.3883e-10
+   CBS =  0
+   PB =  3
+   RSH =  0
+   CJ =  0
+   MJ =  0.88158
+   CJSW =  0
+   MJSW =  0.5
+   JS =  0
+   TOX =  2e-06
+   NSUB =  0
+   NSS =  0
+   TPG =  1
+   LD =  0
+   U0 =  600
+   KF =  0
+   AF =  1
+   FC =  0.5
+   TNOM =  27
)

.MODEL IRF121 NMOS (
+   VTO =  3.4386
+   KP =  1.0406e-06
+   LAMBDA =  0
+   PHI =  0.6
+   GAMMA =  0
+   RD =  0.16363
+   RS =  0.01
+   IS =  0.00064606
+   CGBO =  0
+   CGDO =  9.1882e-12
+   CGSO =  5.8683e-11
+   CBD =  6.3654e-10
+   CBS =  0
+   PB =  3
+   RSH =  0
+   CJ =  0
+   MJ =  0.90321
+   CJSW =  0
+   MJSW =  0.5
+   JS =  0
+   TOX =  2e-06
+   NSUB =  0
+   NSS =  0
+   TPG =  1
+   LD =  0
+   U0 =  600
+   KF =  0
+   AF =  1
+   FC =  0.5
+   TNOM =  27
)

.MODEL IRF122 NMOS (
+   VTO =  3.4386
+   KP =  1.0406e-06
+   LAMBDA =  0
+   PHI =  0.6
+   GAMMA =  0
+   RD =  0.16363
+   RS =  0.01
+   IS =  0.00064606
+   CGBO =  0
+   CGDO =  7.3174e-12
+   CGSO =  5.915e-11
+   CBD =  6.3883e-10
+   CBS =  0
+   PB =  3
+   RSH =  0
+   CJ =  0
+   MJ =  0.88158
+   CJSW =  0
+   MJSW =  0.5
+   JS =  0
+   TOX =  2e-06
+   NSUB =  0
+   NSS =  0
+   TPG =  1
+   LD =  0
+   U0 =  600
+   KF =  0
+   AF =  1
+   FC =  0.5
+   TNOM =  27
)

.MODEL IRF123 NMOS (
+   VTO =  3.4386
+   KP =  1.0406e-06
+   LAMBDA =  0
+   PHI =  0.6
+   GAMMA =  0
+   RD =  0.16363
+   RS =  0.01
+   IS =  0.00064606
+   CGBO =  0
+   CGDO =  9.1882e-12
+   CGSO =  5.8683e-11
+   CBD =  6.3654e-10
+   CBS =  0
+   PB =  3
+   RSH =  0
+   CJ =  0
+   MJ =  0.90321
+   CJSW =  0
+   MJSW =  0.5
+   JS =  0
+   TOX =  2e-06
+   NSUB =  0
+   NSS =  0
+   TPG =  1
+   LD =  0
+   U0 =  600
+   KF =  0
+   AF =  1
+   FC =  0.5
+   TNOM =  27
)

.MODEL IRF131 NMOS (
+   VTO =  3.4831
+   KP =  1.0304e-06
+   LAMBDA =  0
+   PHI =  0.6
+   GAMMA =  0
+   RD =  0.075723
+   RS =  0.01
+   IS =  5.2307e-05
+   CGBO =  0
+   CGDO =  1.9574e-11
+   CGSO =  6.6166e-11
+   CBD =  9.783e-09
+   CBS =  0
+   PB =  0.3905
+   RSH =  0
+   CJ =  0
+   MJ =  1.1572
+   CJSW =  0
+   MJSW =  0.5
+   JS =  0
+   TOX =  2e-06
+   NSUB =  0
+   NSS =  0
+   TPG =  1
+   LD =  0
+   U0 =  600
+   KF =  0
+   AF =  1
+   FC =  0.5
+   TNOM =  27
)

.MODEL IRF132 NMOS (
+   VTO =  3.4831
+   KP =  1.0304e-06
+   LAMBDA =  0
+   PHI =  0.6
+   GAMMA =  0
+   RD =  0.075723
+   RS =  0.01
+   IS =  5.2307e-05
+   CGBO =  0
+   CGDO =  1.5581e-11
+   CGSO =  6.661e-11
+   CBD =  8.0613e-09
+   CBS =  0
+   PB =  0.3905
+   RSH =  0
+   CJ =  0
+   MJ =  1.0608
+   CJSW =  0
+   MJSW =  0.5
+   JS =  0
+   TOX =  2e-06
+   NSUB =  0
+   NSS =  0
+   TPG =  1
+   LD =  0
+   U0 =  600
+   KF =  0
+   AF =  1
+   FC =  0.5
+   TNOM =  27
)

.MODEL IRF133 NMOS (
+   VTO =  3.4831
+   KP =  1.0304e-06
+   LAMBDA =  0
+   PHI =  0.6
+   GAMMA =  0
+   RD =  0.075723
+   RS =  0.01
+   IS =  5.2307e-05
+   CGBO =  0
+   CGDO =  1.9574e-11
+   CGSO =  6.6166e-11
+   CBD =  9.783e-09
+   CBS =  0
+   PB =  0.3905
+   RSH =  0
+   CJ =  0
+   MJ =  1.1572
+   CJSW =  0
+   MJSW =  0.5
+   JS =  0
+   TOX =  2e-06
+   NSUB =  0
+   NSS =  0
+   TPG =  1
+   LD =  0
+   U0 =  600
+   KF =  0
+   AF =  1
+   FC =  0.5
+   TNOM =  27
)

.MODEL IRF141 NMOS (
+   VTO =  3.4259
+   KP =  1.0686e-06
+   LAMBDA =  0
+   PHI =  0.6
+   GAMMA =  0
+   RD =  0.036804
+   RS =  0.01
+   IS =  9.3806e-05
+   CGBO =  0
+   CGDO =  2.6029e-11
+   CGSO =  7.3963e-11
+   CBD =  2.8929e-09
+   CBS =  0
+   PB =  2.9996
+   RSH =  0
+   CJ =  0
+   MJ =  1.3481
+   CJSW =  0
+   MJSW =  0.5
+   JS =  0
+   TOX =  2e-06
+   NSUB =  0
+   NSS =  0
+   TPG =  1
+   LD =  0
+   U0 =  600
+   KF =  0
+   AF =  1
+   FC =  0.5
+   TNOM =  27
)

.MODEL IRF142 NMOS (
+   VTO =  3.4259
+   KP =  1.0686e-06
+   LAMBDA =  0
+   PHI =  0.6
+   GAMMA =  0
+   RD =  0.036804
+   RS =  0.01
+   IS =  9.3701e-05
+   CGBO =  0
+   CGDO =  2.0694e-11
+   CGSO =  7.4374e-11
+   CBD =  2.8736e-09
+   CBS =  0
+   PB =  3
+   RSH =  0
+   CJ =  0
+   MJ =  1.2733
+   CJSW =  0
+   MJSW =  0.5
+   JS =  0
+   TOX =  2e-06
+   NSUB =  0
+   NSS =  0
+   TPG =  1
+   LD =  0
+   U0 =  600
+   KF =  0
+   AF =  1
+   FC =  0.5
+   TNOM =  27
)

.MODEL IRF143 NMOS (
+   VTO =  3.4259
+   KP =  1.0686e-06
+   LAMBDA =  0
+   PHI =  0.6
+   GAMMA =  0
+   RD =  0.036804
+   RS =  0.01
+   IS =  9.3701e-05
+   CGBO =  0
+   CGDO =  2.6029e-11
+   CGSO =  7.3963e-11
+   CBD =  2.8903e-09
+   CBS =  0
+   PB =  3
+   RSH =  0
+   CJ =  0
+   MJ =  1.3464
+   CJSW =  0
+   MJSW =  0.5
+   JS =  0
+   TOX =  2e-06
+   NSUB =  0
+   NSS =  0
+   TPG =  1
+   LD =  0
+   U0 =  600
+   KF =  0
+   AF =  1
+   FC =  0.5
+   TNOM =  27
)

.MODEL IRF151 NMOS (
+   VTO =  3.079
+   KP =  1.0412e-06
+   LAMBDA =  0
+   PHI =  0.6
+   GAMMA =  0
+   RD =  0.001
+   RS =  0.01
+   IS =  0.00065553
+   CGBO =  0
+   CGDO =  1.0797e-10
+   CGSO =  3.8951e-10
+   CBD =  5.531e-09
+   CBS =  0
+   PB =  3
+   RSH =  0
+   CJ =  0
+   MJ =  1.5
+   CJSW =  0
+   MJSW =  0.5
+   JS =  0
+   TOX =  2e-06
+   NSUB =  0
+   NSS =  0
+   TPG =  1
+   LD =  0
+   U0 =  600
+   KF =  0
+   AF =  1
+   FC =  0.5
+   TNOM =  27
)

.MODEL IRF152 NMOS (
+   VTO =  3.079
+   KP =  1.0412e-06
+   LAMBDA =  0
+   PHI =  0.6
+   GAMMA =  0
+   RD =  0.001
+   RS =  0.01
+   IS =  0.00065572
+   CGBO =  0
+   CGDO =  6.2432e-11
+   CGSO =  3.955e-10
+   CBD =  5.2637e-09
+   CBS =  0
+   PB =  3
+   RSH =  0
+   CJ =  0
+   MJ =  1.236
+   CJSW =  0
+   MJSW =  0.5
+   JS =  0
+   TOX =  2e-06
+   NSUB =  0
+   NSS =  0
+   TPG =  1
+   LD =  0
+   U0 =  600
+   KF =  0
+   AF =  1
+   FC =  0.5
+   TNOM =  27
)

.MODEL IRF153 NMOS (
+   VTO =  3.079
+   KP =  1.0412e-06
+   LAMBDA =  0
+   PHI =  0.6
+   GAMMA =  0
+   RD =  0.001
+   RS =  0.01
+   IS =  0.00065572
+   CGBO =  0
+   CGDO =  1.0797e-10
+   CGSO =  3.8951e-10
+   CBD =  5.531e-09
+   CBS =  0
+   PB =  3
+   RSH =  0
+   CJ =  0
+   MJ =  1.5
+   CJSW =  0
+   MJSW =  0.5
+   JS =  0
+   TOX =  2e-06
+   NSUB =  0
+   NSS =  0
+   TPG =  1
+   LD =  0
+   U0 =  600
+   KF =  0
+   AF =  1
+   FC =  0.5
+   TNOM =  27
)

.MODEL IRF220 NMOS (
+   VTO =  2.6914
+   KP =  1.0392e-06
+   LAMBDA =  0
+   PHI =  0.6
+   GAMMA =  0
+   RD =  0.36731
+   RS =  0.01
+   IS =  1e-18
+   CGBO =  0
+   CGDO =  1.7298e-11
+   CGSO =  3.4077e-10
+   CBD =  4.1332e-10
+   CBS =  0
+   PB =  3
+   RSH =  0
+   CJ =  0
+   MJ =  0.58131
+   CJSW =  0
+   MJSW =  0.5
+   JS =  0
+   TOX =  2e-06
+   NSUB =  0
+   NSS =  0
+   TPG =  1
+   LD =  0
+   U0 =  600
+   KF =  0
+   AF =  1
+   FC =  0.5
+   TNOM =  27
)

.MODEL IRF221 NMOS (
+   VTO =  2.6914
+   KP =  1.0392e-06
+   LAMBDA =  0
+   PHI =  0.6
+   GAMMA =  0
+   RD =  0.36731
+   RS =  0.01
+   IS =  1e-18
+   CGBO =  0
+   CGDO =  2.3179e-11
+   CGSO =  3.381e-10
+   CBD =  4.0342e-10
+   CBS =  0
+   PB =  3
+   RSH =  0
+   CJ =  0
+   MJ =  0.61868
+   CJSW =  0
+   MJSW =  0.5
+   JS =  0
+   TOX =  2e-06
+   NSUB =  0
+   NSS =  0
+   TPG =  1
+   LD =  0
+   U0 =  600
+   KF =  0
+   AF =  1
+   FC =  0.5
+   TNOM =  27
)

.MODEL IRF222 NMOS (
+   VTO =  2.6914
+   KP =  1.0392e-06
+   LAMBDA =  0
+   PHI =  0.6
+   GAMMA =  0
+   RD =  0.66731
+   RS =  0.01
+   IS =  1e-18
+   CGBO =  0
+   CGDO =  2.3179e-11
+   CGSO =  3.381e-10
+   CBD =  4.0342e-10
+   CBS =  0
+   PB =  3
+   RSH =  0
+   CJ =  0
+   MJ =  0.61868
+   CJSW =  0
+   MJSW =  0.5
+   JS =  0
+   TOX =  2e-06
+   NSUB =  0
+   NSS =  0
+   TPG =  1
+   LD =  0
+   U0 =  600
+   KF =  0
+   AF =  1
+   FC =  0.5
+   TNOM =  27
)

.MODEL IRF223 NMOS (
+   VTO =  2.6914
+   KP =  1.0392e-06
+   LAMBDA =  0
+   PHI =  0.6
+   GAMMA =  0
+   RD =  0.66731
+   RS =  0.01
+   IS =  1e-18
+   CGBO =  0
+   CGDO =  2.3179e-11
+   CGSO =  3.381e-10
+   CBD =  4.0342e-10
+   CBS =  0
+   PB =  3
+   RSH =  0
+   CJ =  0
+   MJ =  0.61868
+   CJSW =  0
+   MJSW =  0.5
+   JS =  0
+   TOX =  2e-06
+   NSUB =  0
+   NSS =  0
+   TPG =  1
+   LD =  0
+   U0 =  600
+   KF =  0
+   AF =  1
+   FC =  0.5
+   TNOM =  27
)

.MODEL IRF231 NMOS (
+   VTO =  2.8615
+   KP =  1.0461e-06
+   LAMBDA =  0
+   PHI =  0.6
+   GAMMA =  0
+   RD =  0.17582
+   RS =  0.01
+   IS =  3.3914e-06
+   CGBO =  0
+   CGDO =  1.7793e-11
+   CGSO =  3.4082e-10
+   CBD =  1.6789e-09
+   CBS =  0
+   PB =  1.5859
+   RSH =  0
+   CJ =  0
+   MJ =  0.82269
+   CJSW =  0
+   MJSW =  0.5
+   JS =  0
+   TOX =  2e-06
+   NSUB =  0
+   NSS =  0
+   TPG =  1
+   LD =  0
+   U0 =  600
+   KF =  0
+   AF =  1
+   FC =  0.5
+   TNOM =  27
)

.MODEL IRF232 NMOS (
+   VTO =  2.8615
+   KP =  1.0461e-06
+   LAMBDA =  0
+   PHI =  0.6
+   GAMMA =  0
+   RD =  0.17582
+   RS =  0.01
+   IS =  3.3914e-06
+   CGBO =  0
+   CGDO =  1.3278e-11
+   CGSO =  3.4187e-10
+   CBD =  2.0519e-09
+   CBS =  0
+   PB =  0.95058
+   RSH =  0
+   CJ =  0
+   MJ =  0.72968
+   CJSW =  0
+   MJSW =  0.5
+   JS =  0
+   TOX =  2e-06
+   NSUB =  0
+   NSS =  0
+   TPG =  1
+   LD =  0
+   U0 =  600
+   KF =  0
+   AF =  1
+   FC =  0.5
+   TNOM =  27
)

.MODEL IRF233 NMOS (
+   VTO =  2.8615
+   KP =  1.0461e-06
+   LAMBDA =  0
+   PHI =  0.6
+   GAMMA =  0
+   RD =  0.17582
+   RS =  0.01
+   IS =  3.3914e-06
+   CGBO =  0
+   CGDO =  1.7793e-11
+   CGSO =  3.4082e-10
+   CBD =  1.6787e-09
+   CBS =  0
+   PB =  1.5861
+   RSH =  0
+   CJ =  0
+   MJ =  0.82271
+   CJSW =  0
+   MJSW =  0.5
+   JS =  0
+   TOX =  2e-06
+   NSUB =  0
+   NSS =  0
+   TPG =  1
+   LD =  0
+   U0 =  600
+   KF =  0
+   AF =  1
+   FC =  0.5
+   TNOM =  27
)

.MODEL IRF234 NMOS (
+   VTO =  4.1824
+   KP =  1.0428e-06
+   LAMBDA =  0
+   PHI =  0.6
+   GAMMA =  0
+   RD =  0.24053
+   RS =  0.01
+   IS =  0.004953
+   CGBO =  0
+   CGDO =  1.2345e-11
+   CGSO =  1.1829e-10
+   CBD =  1.1292e-09
+   CBS =  0
+   PB =  3
+   RSH =  0
+   CJ =  0
+   MJ =  0.92863
+   CJSW =  0
+   MJSW =  0.5
+   JS =  0
+   TOX =  2e-06
+   NSUB =  0
+   NSS =  0
+   TPG =  1
+   LD =  0
+   U0 =  600
+   KF =  0
+   AF =  1
+   FC =  0.5
+   TNOM =  27
)

.MODEL IRF235 NMOS (
+   VTO =  4.1824
+   KP =  1.0428e-06
+   LAMBDA =  0
+   PHI =  0.6
+   GAMMA =  0
+   RD =  0.24053
+   RS =  0.01
+   IS =  0.004953
+   CGBO =  0
+   CGDO =  1.2345e-11
+   CGSO =  1.1829e-10
+   CBD =  1.1292e-09
+   CBS =  0
+   PB =  3
+   RSH =  0
+   CJ =  0
+   MJ =  0.92863
+   CJSW =  0
+   MJSW =  0.5
+   JS =  0
+   TOX =  2e-06
+   NSUB =  0
+   NSS =  0
+   TPG =  1
+   LD =  0
+   U0 =  600
+   KF =  0
+   AF =  1
+   FC =  0.5
+   TNOM =  27
)

.MODEL IRF241 NMOS (
+   VTO =  3.6477
+   KP =  1.0304e-06
+   LAMBDA =  0
+   PHI =  0.6
+   GAMMA =  0
+   RD =  0.094899
+   RS =  0.01
+   IS =  0.0019582
+   CGBO =  0
+   CGDO =  2.5117e-11
+   CGSO =  9.9669e-11
+   CBD =  2.6204e-09
+   CBS =  0
+   PB =  3
+   RSH =  0
+   CJ =  0
+   MJ =  1.0203
+   CJSW =  0
+   MJSW =  0.5
+   JS =  0
+   TOX =  2e-06
+   NSUB =  0
+   NSS =  0
+   TPG =  1
+   LD =  0
+   U0 =  600
+   KF =  0
+   AF =  1
+   FC =  0.5
+   TNOM =  27
)

.MODEL IRF243 NMOS (
+   VTO =  3.6477
+   KP =  1.0304e-06
+   LAMBDA =  0
+   PHI =  0.6
+   GAMMA =  0
+   RD =  0.094899
+   RS =  0.01
+   IS =  0.0019582
+   CGBO =  0
+   CGDO =  2.5117e-11
+   CGSO =  9.9669e-11
+   CBD =  2.6204e-09
+   CBS =  0
+   PB =  3
+   RSH =  0
+   CJ =  0
+   MJ =  1.0203
+   CJSW =  0
+   MJSW =  0.5
+   JS =  0
+   TOX =  2e-06
+   NSUB =  0
+   NSS =  0
+   TPG =  1
+   LD =  0
+   U0 =  600
+   KF =  0
+   AF =  1
+   FC =  0.5
+   TNOM =  27
)

.MODEL IRF244 NMOS (
+   VTO =  3.6179
+   KP =  1.037e-06
+   LAMBDA =  0
+   PHI =  0.6
+   GAMMA =  0
+   RD =  0.17063
+   RS =  0.01
+   IS =  0.0014825
+   CGBO =  0
+   CGDO =  6.2794e-12
+   CGSO =  4.0694e-11
+   CBD =  2.8066e-09
+   CBS =  0
+   PB =  3
+   RSH =  0
+   CJ =  0
+   MJ =  1.1036
+   CJSW =  0
+   MJSW =  0.5
+   JS =  0
+   TOX =  2e-06
+   NSUB =  0
+   NSS =  0
+   TPG =  1
+   LD =  0
+   U0 =  600
+   KF =  0
+   AF =  1
+   FC =  0.5
+   TNOM =  27
)

.MODEL IRF245 NMOS (
+   VTO =  3.6179
+   KP =  1.037e-06
+   LAMBDA =  0
+   PHI =  0.6
+   GAMMA =  0
+   RD =  0.17063
+   RS =  0.01
+   IS =  0.0014825
+   CGBO =  0
+   CGDO =  6.2794e-12
+   CGSO =  4.0694e-11
+   CBD =  2.8066e-09
+   CBS =  0
+   PB =  3
+   RSH =  0
+   CJ =  0
+   MJ =  1.1036
+   CJSW =  0
+   MJSW =  0.5
+   JS =  0
+   TOX =  2e-06
+   NSUB =  0
+   NSS =  0
+   TPG =  1
+   LD =  0
+   U0 =  600
+   KF =  0
+   AF =  1
+   FC =  0.5
+   TNOM =  27
)

.MODEL IRF251 NMOS (
+   VTO =  3.9491
+   KP =  1.025e-06
+   LAMBDA =  0
+   PHI =  0.6
+   GAMMA =  0
+   RD =  0.050682
+   RS =  0.01
+   IS =  1e-18
+   CGBO =  0
+   CGDO =  9.796e-12
+   CGSO =  2.7973e-11
+   CBD =  6.5392e-09
+   CBS =  0
+   PB =  2.3722
+   RSH =  0
+   CJ =  0
+   MJ =  1.0843
+   CJSW =  0
+   MJSW =  0.5
+   JS =  0
+   TOX =  2e-06
+   NSUB =  0
+   NSS =  0
+   TPG =  1
+   LD =  0
+   U0 =  600
+   KF =  0
+   AF =  1
+   FC =  0.5
+   TNOM =  27
)

.MODEL IRF252 NMOS (
+   VTO =  3.9491
+   KP =  1.025e-06
+   LAMBDA =  0
+   PHI =  0.6
+   GAMMA =  0
+   RD =  0.050682
+   RS =  0.01
+   IS =  1e-18
+   CGBO =  0
+   CGDO =  7.3331e-12
+   CGSO =  2.8041e-11
+   CBD =  6.6501e-09
+   CBS =  0
+   PB =  2.195
+   RSH =  0
+   CJ =  0
+   MJ =  1.0192
+   CJSW =  0
+   MJSW =  0.5
+   JS =  0
+   TOX =  2e-06
+   NSUB =  0
+   NSS =  0
+   TPG =  1
+   LD =  0
+   U0 =  600
+   KF =  0
+   AF =  1
+   FC =  0.5
+   TNOM =  27
)

.MODEL IRF253 NMOS (
+   VTO =  3.9491
+   KP =  1.025e-06
+   LAMBDA =  0
+   PHI =  0.6
+   GAMMA =  0
+   RD =  0.050682
+   RS =  0.01
+   IS =  1e-18
+   CGBO =  0
+   CGDO =  9.796e-12
+   CGSO =  2.7973e-11
+   CBD =  6.5393e-09
+   CBS =  0
+   PB =  2.3722
+   RSH =  0
+   CJ =  0
+   MJ =  1.0843
+   CJSW =  0
+   MJSW =  0.5
+   JS =  0
+   TOX =  2e-06
+   NSUB =  0
+   NSS =  0
+   TPG =  1
+   LD =  0
+   U0 =  600
+   KF =  0
+   AF =  1
+   FC =  0.5
+   TNOM =  27
)

.MODEL IRF254 NMOS (
+   VTO =  3.6905
+   KP =  1.0298e-06
+   LAMBDA =  0
+   PHI =  0.6
+   GAMMA =  0
+   RD =  0.089777
+   RS =  0.01
+   IS =  1.4383e-13
+   CGBO =  0
+   CGDO =  1.1819e-11
+   CGSO =  4.9488e-11
+   CBD =  6.7449e-09
+   CBS =  0
+   PB =  3
+   RSH =  0
+   CJ =  0
+   MJ =  1.5
+   CJSW =  0
+   MJSW =  0.5
+   JS =  0
+   TOX =  2e-06
+   NSUB =  0
+   NSS =  0
+   TPG =  1
+   LD =  0
+   U0 =  600
+   KF =  0
+   AF =  1
+   FC =  0.5
+   TNOM =  27
)

.MODEL IRF255 NMOS (
+   VTO =  3.6905
+   KP =  1.0298e-06
+   LAMBDA =  0
+   PHI =  0.6
+   GAMMA =  0
+   RD =  0.089777
+   RS =  0.01
+   IS =  1.4623e-13
+   CGBO =  0
+   CGDO =  1.1819e-11
+   CGSO =  4.9488e-11
+   CBD =  6.7449e-09
+   CBS =  0
+   PB =  3
+   RSH =  0
+   CJ =  0
+   MJ =  1.5
+   CJSW =  0
+   MJSW =  0.5
+   JS =  0
+   TOX =  2e-06
+   NSUB =  0
+   NSS =  0
+   TPG =  1
+   LD =  0
+   U0 =  600
+   KF =  0
+   AF =  1
+   FC =  0.5
+   TNOM =  27
)

.MODEL IRF320 NMOS (
+   VTO =  3.699
+   KP =  1.0238e-06
+   LAMBDA =  0
+   PHI =  0.6
+   GAMMA =  0
+   RD =  1.4
+   RS =  0.01
+   IS =  3.9702e-05
+   CGBO =  0
+   CGDO =  9.8528e-12
+   CGSO =  1.3047e-10
+   CBD =  7.8224e-10
+   CBS =  0
+   PB =  2
+   RSH =  0
+   CJ =  0
+   MJ =  1.0836
+   CJSW =  0
+   MJSW =  0.5
+   JS =  0
+   TOX =  2e-06
+   NSUB =  0
+   NSS =  0
+   TPG =  1
+   LD =  0
+   U0 =  600
+   KF =  0
+   AF =  1
+   FC =  0.5
+   TNOM =  27
)

.MODEL IRF321 NMOS (
+   VTO =  3.699
+   KP =  1.0238e-06
+   LAMBDA =  0
+   PHI =  0.6
+   GAMMA =  0
+   RD =  1.4
+   RS =  0.01
+   IS =  3.9702e-05
+   CGBO =  0
+   CGDO =  9.8528e-12
+   CGSO =  1.3047e-10
+   CBD =  7.8224e-10
+   CBS =  0
+   PB =  2
+   RSH =  0
+   CJ =  0
+   MJ =  1.0836
+   CJSW =  0
+   MJSW =  0.5
+   JS =  0
+   TOX =  2e-06
+   NSUB =  0
+   NSS =  0
+   TPG =  1
+   LD =  0
+   U0 =  600
+   KF =  0
+   AF =  1
+   FC =  0.5
+   TNOM =  27
)

.MODEL IRF322 NMOS (
+   VTO =  3.699
+   KP =  1.0238e-06
+   LAMBDA =  0
+   PHI =  0.6
+   GAMMA =  0
+   RD =  1.4
+   RS =  0.01
+   IS =  3.9702e-05
+   CGBO =  0
+   CGDO =  9.8528e-12
+   CGSO =  1.3047e-10
+   CBD =  7.8224e-10
+   CBS =  0
+   PB =  2
+   RSH =  0
+   CJ =  0
+   MJ =  1.0836
+   CJSW =  0
+   MJSW =  0.5
+   JS =  0
+   TOX =  2e-06
+   NSUB =  0
+   NSS =  0
+   TPG =  1
+   LD =  0
+   U0 =  600
+   KF =  0
+   AF =  1
+   FC =  0.5
+   TNOM =  27
)

.MODEL IRF323 NMOS (
+   VTO =  3.699
+   KP =  1.0238e-06
+   LAMBDA =  0
+   PHI =  0.6
+   GAMMA =  0
+   RD =  1.4
+   RS =  0.01
+   IS =  3.9702e-05
+   CGBO =  0
+   CGDO =  9.8528e-12
+   CGSO =  1.3047e-10
+   CBD =  7.8224e-10
+   CBS =  0
+   PB =  2
+   RSH =  0
+   CJ =  0
+   MJ =  1.0836
+   CJSW =  0
+   MJSW =  0.5
+   JS =  0
+   TOX =  2e-06
+   NSUB =  0
+   NSS =  0
+   TPG =  1
+   LD =  0
+   U0 =  600
+   KF =  0
+   AF =  1
+   FC =  0.5
+   TNOM =  27
)

.MODEL IRF331 NMOS (
+   VTO =  3.2648
+   KP =  1.0439e-06
+   LAMBDA =  0
+   PHI =  0.6
+   GAMMA =  0
+   RD =  0.74186
+   RS =  0.01
+   IS =  0.00012348
+   CGBO =  0
+   CGDO =  1.0154e-11
+   CGSO =  9.3503e-11
+   CBD =  2.1565e-09
+   CBS =  0
+   PB =  3
+   RSH =  0
+   CJ =  0
+   MJ =  1.4114
+   CJSW =  0
+   MJSW =  0.5
+   JS =  0
+   TOX =  2e-06
+   NSUB =  0
+   NSS =  0
+   TPG =  1
+   LD =  0
+   U0 =  600
+   KF =  0
+   AF =  1
+   FC =  0.5
+   TNOM =  27
)

.MODEL IRF332 NMOS (
+   VTO =  3.2648
+   KP =  1.0439e-06
+   LAMBDA =  0
+   PHI =  0.6
+   GAMMA =  0
+   RD =  0.74186
+   RS =  0.01
+   IS =  0.00012348
+   CGBO =  0
+   CGDO =  8.8812e-12
+   CGSO =  9.3716e-11
+   CBD =  2.044e-09
+   CBS =  0
+   PB =  3
+   RSH =  0
+   CJ =  0
+   MJ =  1.3559
+   CJSW =  0
+   MJSW =  0.5
+   JS =  0
+   TOX =  2e-06
+   NSUB =  0
+   NSS =  0
+   TPG =  1
+   LD =  0
+   U0 =  600
+   KF =  0
+   AF =  1
+   FC =  0.5
+   TNOM =  27
)

.MODEL IRF333 NMOS (
+   VTO =  3.2648
+   KP =  1.0439e-06
+   LAMBDA =  0
+   PHI =  0.6
+   GAMMA =  0
+   RD =  0.74186
+   RS =  0.01
+   IS =  0.00012348
+   CGBO =  0
+   CGDO =  1.6667e-15
+   CGSO =  9.5196e-11
+   CBD =  5.9971e-09
+   CBS =  0
+   PB =  0.3905
+   RSH =  0
+   CJ =  0
+   MJ =  0.88271
+   CJSW =  0
+   MJSW =  0.5
+   JS =  0
+   TOX =  2e-06
+   NSUB =  0
+   NSS =  0
+   TPG =  1
+   LD =  0
+   U0 =  600
+   KF =  0
+   AF =  1
+   FC =  0.5
+   TNOM =  27
)

.MODEL IRF340 NMOS (
+   VTO =  3.5957
+   KP =  1.0158e-06
+   LAMBDA =  0
+   PHI =  0.6
+   GAMMA =  0
+   RD =  0.36916
+   RS =  0.01
+   IS =  3.8031e-05
+   CGBO =  0
+   CGDO =  4.8025e-12
+   CGSO =  5.4618e-11
+   CBD =  1.74e-08
+   CBS =  0
+   PB =  0.3905
+   RSH =  0
+   CJ =  0
+   MJ =  1.5
+   CJSW =  0
+   MJSW =  0.5
+   JS =  0
+   TOX =  2e-06
+   NSUB =  0
+   NSS =  0
+   TPG =  1
+   LD =  0
+   U0 =  600
+   KF =  0
+   AF =  1
+   FC =  0.5
+   TNOM =  27
)

.MODEL IRF341 NMOS (
+   VTO =  3.5957
+   KP =  1.0158e-06
+   LAMBDA =  0
+   PHI =  0.6
+   GAMMA =  0
+   RD =  0.36916
+   RS =  0.01
+   IS =  3.8031e-05
+   CGBO =  0
+   CGDO =  5.4903e-12
+   CGSO =  5.4572e-11
+   CBD =  1.7243e-08
+   CBS =  0
+   PB =  0.3905
+   RSH =  0
+   CJ =  0
+   MJ =  1.5
+   CJSW =  0
+   MJSW =  0.5
+   JS =  0
+   TOX =  2e-06
+   NSUB =  0
+   NSS =  0
+   TPG =  1
+   LD =  0
+   U0 =  600
+   KF =  0
+   AF =  1
+   FC =  0.5
+   TNOM =  27
)

.MODEL IRF342 NMOS (
+   VTO =  3.5957
+   KP =  1.0158e-06
+   LAMBDA =  0
+   PHI =  0.6
+   GAMMA =  0
+   RD =  0.36916
+   RS =  0.01
+   IS =  3.8031e-05
+   CGBO =  0
+   CGDO =  4.8025e-12
+   CGSO =  5.4618e-11
+   CBD =  1.74e-08
+   CBS =  0
+   PB =  0.3905
+   RSH =  0
+   CJ =  0
+   MJ =  1.5
+   CJSW =  0
+   MJSW =  0.5
+   JS =  0
+   TOX =  2e-06
+   NSUB =  0
+   NSS =  0
+   TPG =  1
+   LD =  0
+   U0 =  600
+   KF =  0
+   AF =  1
+   FC =  0.5
+   TNOM =  27
)

.MODEL IRF343 NMOS (
+   VTO =  3.5957
+   KP =  1.0158e-06
+   LAMBDA =  0
+   PHI =  0.6
+   GAMMA =  0
+   RD =  0.36916
+   RS =  0.01
+   IS =  3.8031e-05
+   CGBO =  0
+   CGDO =  5.4903e-12
+   CGSO =  5.4572e-11
+   CBD =  1.7243e-08
+   CBS =  0
+   PB =  0.3905
+   RSH =  0
+   CJ =  0
+   MJ =  1.5
+   CJSW =  0
+   MJSW =  0.5
+   JS =  0
+   TOX =  2e-06
+   NSUB =  0
+   NSS =  0
+   TPG =  1
+   LD =  0
+   U0 =  600
+   KF =  0
+   AF =  1
+   FC =  0.5
+   TNOM =  27
)

.MODEL IRF351 NMOS (
+   VTO =  3.2867
+   KP =  1.017e-06
+   LAMBDA =  0
+   PHI =  0.6
+   GAMMA =  0
+   RD =  0.22126
+   RS =  0.01
+   IS =  3.6787e-05
+   CGBO =  0
+   CGDO =  9.1913e-12
+   CGSO =  4.0551e-10
+   CBD =  4.6837e-10
+   CBS =  0
+   PB =  3
+   RSH =  0
+   CJ =  0
+   MJ =  1.5
+   CJSW =  0
+   MJSW =  0.5
+   JS =  0
+   TOX =  2e-06
+   NSUB =  0
+   NSS =  0
+   TPG =  1
+   LD =  0
+   U0 =  600
+   KF =  0
+   AF =  1
+   FC =  0.5
+   TNOM =  27
)

.MODEL IRF352 NMOS (
+   VTO =  3.2867
+   KP =  1.017e-06
+   LAMBDA =  0
+   PHI =  0.6
+   GAMMA =  0
+   RD =  0.22126
+   RS =  0.01
+   IS =  3.6787e-05
+   CGBO =  0
+   CGDO =  8.038e-12
+   CGSO =  4.0558e-10
+   CBD =  5.7943e-10
+   CBS =  0
+   PB =  3
+   RSH =  0
+   CJ =  0
+   MJ =  1.5
+   CJSW =  0
+   MJSW =  0.5
+   JS =  0
+   TOX =  2e-06
+   NSUB =  0
+   NSS =  0
+   TPG =  1
+   LD =  0
+   U0 =  600
+   KF =  0
+   AF =  1
+   FC =  0.5
+   TNOM =  27
)

.MODEL IRF353 NMOS (
+   VTO =  3.2867
+   KP =  1.017e-06
+   LAMBDA =  0
+   PHI =  0.6
+   GAMMA =  0
+   RD =  0.22126
+   RS =  0.01
+   IS =  3.6787e-05
+   CGBO =  0
+   CGDO =  9.1913e-12
+   CGSO =  4.0551e-10
+   CBD =  4.6837e-10
+   CBS =  0
+   PB =  3
+   RSH =  0
+   CJ =  0
+   MJ =  1.5
+   CJSW =  0
+   MJSW =  0.5
+   JS =  0
+   TOX =  2e-06
+   NSUB =  0
+   NSS =  0
+   TPG =  1
+   LD =  0
+   U0 =  600
+   KF =  0
+   AF =  1
+   FC =  0.5
+   TNOM =  27
)

.MODEL IRF360 NMOS (
+   VTO =  4.2342
+   KP =  1.0251e-06
+   LAMBDA =  0
+   PHI =  0.6
+   GAMMA =  0
+   RD =  0.16255
+   RS =  0.01
+   IS =  1e-18
+   CGBO =  0
+   CGDO =  8.0058e-12
+   CGSO =  3.6534e-11
+   CBD =  1
+   CBS =  0
+   PB =  3
+   RSH =  0
+   CJ =  0
+   MJ =  0.1
+   CJSW =  0
+   MJSW =  0.5
+   JS =  0
+   TOX =  2e-06
+   NSUB =  0
+   NSS =  0
+   TPG =  1
+   LD =  0
+   U0 =  600
+   KF =  0
+   AF =  1
+   FC =  0.5
+   TNOM =  27
)

.MODEL IRF420 NMOS (
+   VTO =  25.5
+   KP =  1.0366e-06
+   LAMBDA =  0
+   PHI =  0.6
+   GAMMA =  0
+   RD =  24.62
+   RS =  0.01
+   IS =  8.6575e-08
+   CGBO =  0
+   CGDO =  3.9542e-12
+   CGSO =  1.2993e-11
+   CBD =  8.0803e-10
+   CBS =  0
+   PB =  3
+   RSH =  0
+   CJ =  0
+   MJ =  1.5
+   CJSW =  0
+   MJSW =  0.5
+   JS =  0
+   TOX =  2e-06
+   NSUB =  0
+   NSS =  0
+   TPG =  1
+   LD =  0
+   U0 =  600
+   KF =  0
+   AF =  1
+   FC =  0.5
+   TNOM =  27
)

.MODEL IRF421 NMOS (
+   VTO =  25.5
+   KP =  1.0366e-06
+   LAMBDA =  0
+   PHI =  0.6
+   GAMMA =  0
+   RD =  24.62
+   RS =  0.01
+   IS =  8.6575e-08
+   CGBO =  0
+   CGDO =  4.3944e-12
+   CGSO =  1.2877e-11
+   CBD =  8.0423e-10
+   CBS =  0
+   PB =  3
+   RSH =  0
+   CJ =  0
+   MJ =  1.5
+   CJSW =  0
+   MJSW =  0.5
+   JS =  0
+   TOX =  2e-06
+   NSUB =  0
+   NSS =  0
+   TPG =  1
+   LD =  0
+   U0 =  600
+   KF =  0
+   AF =  1
+   FC =  0.5
+   TNOM =  27
)

.MODEL IRF422 NMOS (
+   VTO =  25.5
+   KP =  1.0366e-06
+   LAMBDA =  0
+   PHI =  0.6
+   GAMMA =  0
+   RD =  24.62
+   RS =  0.01
+   IS =  8.6575e-08
+   CGBO =  0
+   CGDO =  3.9542e-12
+   CGSO =  1.2993e-11
+   CBD =  8.0803e-10
+   CBS =  0
+   PB =  3
+   RSH =  0
+   CJ =  0
+   MJ =  1.5
+   CJSW =  0
+   MJSW =  0.5
+   JS =  0
+   TOX =  2e-06
+   NSUB =  0
+   NSS =  0
+   TPG =  1
+   LD =  0
+   U0 =  600
+   KF =  0
+   AF =  1
+   FC =  0.5
+   TNOM =  27
)

.MODEL IRF423 NMOS (
+   VTO =  25.5
+   KP =  1.0366e-06
+   LAMBDA =  0
+   PHI =  0.6
+   GAMMA =  0
+   RD =  24.62
+   RS =  0.01
+   IS =  8.6575e-08
+   CGBO =  0
+   CGDO =  4.3944e-12
+   CGSO =  1.2877e-11
+   CBD =  8.0423e-10
+   CBS =  0
+   PB =  3
+   RSH =  0
+   CJ =  0
+   MJ =  1.5
+   CJSW =  0
+   MJSW =  0.5
+   JS =  0
+   TOX =  2e-06
+   NSUB =  0
+   NSS =  0
+   TPG =  1
+   LD =  0
+   U0 =  600
+   KF =  0
+   AF =  1
+   FC =  0.5
+   TNOM =  27
)

.MODEL IRF430 NMOS (
+   VTO =  3.0991
+   KP =  1.0344e-06
+   LAMBDA =  0
+   PHI =  0.6
+   GAMMA =  0
+   RD =  2.4227
+   RS =  0.01
+   IS =  1e-18
+   CGBO =  0
+   CGDO =  6.5714e-12
+   CGSO =  1.1682e-10
+   CBD =  1.1126e-09
+   CBS =  0
+   PB =  3
+   RSH =  0
+   CJ =  0
+   MJ =  0.94202
+   CJSW =  0
+   MJSW =  0.5
+   JS =  0
+   TOX =  2e-06
+   NSUB =  0
+   NSS =  0
+   TPG =  1
+   LD =  0
+   U0 =  600
+   KF =  0
+   AF =  1
+   FC =  0.5
+   TNOM =  27
)

.MODEL IRF431 NMOS (
+   VTO =  3.0991
+   KP =  1.0344e-06
+   LAMBDA =  0
+   PHI =  0.6
+   GAMMA =  0
+   RD =  2.4227
+   RS =  0.01
+   IS =  1e-18
+   CGBO =  0
+   CGDO =  7.3046e-12
+   CGSO =  1.1665e-10
+   CBD =  1.1131e-09
+   CBS =  0
+   PB =  3
+   RSH =  0
+   CJ =  0
+   MJ =  0.94951
+   CJSW =  0
+   MJSW =  0.5
+   JS =  0
+   TOX =  2e-06
+   NSUB =  0
+   NSS =  0
+   TPG =  1
+   LD =  0
+   U0 =  600
+   KF =  0
+   AF =  1
+   FC =  0.5
+   TNOM =  27
)

.MODEL IRF432 NMOS (
+   VTO =  3.0991
+   KP =  1.0344e-06
+   LAMBDA =  0
+   PHI =  0.6
+   GAMMA =  0
+   RD =  2.4227
+   RS =  0.01
+   IS =  1e-18
+   CGBO =  0
+   CGDO =  6.5714e-12
+   CGSO =  1.1682e-10
+   CBD =  1.1126e-09
+   CBS =  0
+   PB =  3
+   RSH =  0
+   CJ =  0
+   MJ =  0.94202
+   CJSW =  0
+   MJSW =  0.5
+   JS =  0
+   TOX =  2e-06
+   NSUB =  0
+   NSS =  0
+   TPG =  1
+   LD =  0
+   U0 =  600
+   KF =  0
+   AF =  1
+   FC =  0.5
+   TNOM =  27
)

.MODEL IRF433 NMOS (
+   VTO =  3.0991
+   KP =  1.0344e-06
+   LAMBDA =  0
+   PHI =  0.6
+   GAMMA =  0
+   RD =  2.4227
+   RS =  0.01
+   IS =  1e-18
+   CGBO =  0
+   CGDO =  7.3046e-12
+   CGSO =  1.1665e-10
+   CBD =  1.1131e-09
+   CBS =  0
+   PB =  3
+   RSH =  0
+   CJ =  0
+   MJ =  0.94951
+   CJSW =  0
+   MJSW =  0.5
+   JS =  0
+   TOX =  2e-06
+   NSUB =  0
+   NSS =  0
+   TPG =  1
+   LD =  0
+   U0 =  600
+   KF =  0
+   AF =  1
+   FC =  0.5
+   TNOM =  27
)

.MODEL IRF440 NMOS (
+   VTO =  4.2466
+   KP =  1.0602e-06
+   LAMBDA =  0
+   PHI =  0.6
+   GAMMA =  0
+   RD =  0.66618
+   RS =  0.01
+   IS =  8.867e-05
+   CGBO =  0
+   CGDO =  3.9342e-12
+   CGSO =  7.7675e-11
+   CBD =  2.9372e-09
+   CBS =  0
+   PB =  3
+   RSH =  0
+   CJ =  0
+   MJ =  1.5
+   CJSW =  0
+   MJSW =  0.5
+   JS =  0
+   TOX =  2e-06
+   NSUB =  0
+   NSS =  0
+   TPG =  1
+   LD =  0
+   U0 =  600
+   KF =  0
+   AF =  1
+   FC =  0.5
+   TNOM =  27
)

.MODEL IRF441 NMOS (
+   VTO =  4.2466
+   KP =  1.0602e-06
+   LAMBDA =  0
+   PHI =  0.6
+   GAMMA =  0
+   RD =  0.66618
+   RS =  0.01
+   IS =  8.867e-05
+   CGBO =  0
+   CGDO =  4.372e-12
+   CGSO =  7.7644e-11
+   CBD =  2.9223e-09
+   CBS =  0
+   PB =  3
+   RSH =  0
+   CJ =  0
+   MJ =  1.5
+   CJSW =  0
+   MJSW =  0.5
+   JS =  0
+   TOX =  2e-06
+   NSUB =  0
+   NSS =  0
+   TPG =  1
+   LD =  0
+   U0 =  600
+   KF =  0
+   AF =  1
+   FC =  0.5
+   TNOM =  27
)

.MODEL IRF442 NMOS (
+   VTO =  4.2466
+   KP =  1.0602e-06
+   LAMBDA =  0
+   PHI =  0.6
+   GAMMA =  0
+   RD =  0.66618
+   RS =  0.01
+   IS =  8.867e-05
+   CGBO =  0
+   CGDO =  3.9342e-12
+   CGSO =  7.7675e-11
+   CBD =  2.9372e-09
+   CBS =  0
+   PB =  3
+   RSH =  0
+   CJ =  0
+   MJ =  1.5
+   CJSW =  0
+   MJSW =  0.5
+   JS =  0
+   TOX =  2e-06
+   NSUB =  0
+   NSS =  0
+   TPG =  1
+   LD =  0
+   U0 =  600
+   KF =  0
+   AF =  1
+   FC =  0.5
+   TNOM =  27
)

.MODEL IRF443 NMOS (
+   VTO =  4.2466
+   KP =  1.0602e-06
+   LAMBDA =  0
+   PHI =  0.6
+   GAMMA =  0
+   RD =  0.66618
+   RS =  0.01
+   IS =  8.867e-05
+   CGBO =  0
+   CGDO =  4.372e-12
+   CGSO =  7.7644e-11
+   CBD =  2.9223e-09
+   CBS =  0
+   PB =  3
+   RSH =  0
+   CJ =  0
+   MJ =  1.5
+   CJSW =  0
+   MJSW =  0.5
+   JS =  0
+   TOX =  2e-06
+   NSUB =  0
+   NSS =  0
+   TPG =  1
+   LD =  0
+   U0 =  600
+   KF =  0
+   AF =  1
+   FC =  0.5
+   TNOM =  27
)

.MODEL IRF450 NMOS (
+   VTO =  3.9943
+   KP =  1.0326e-06
+   LAMBDA =  0
+   PHI =  0.6
+   GAMMA =  0
+   RD =  0.27735
+   RS =  0.01
+   IS =  0.00071438
+   CGBO =  0
+   CGDO =  4.0434e-12
+   CGSO =  5.1005e-11
+   CBD =  1e-09
+   CBS =  0
+   PB =  0.8
+   RSH =  0
+   CJ =  0
+   MJ =  0.5
+   CJSW =  0
+   MJSW =  0.5
+   JS =  0
+   TOX =  2e-06
+   NSUB =  0
+   NSS =  0
+   TPG =  1
+   LD =  0
+   U0 =  600
+   KF =  0
+   AF =  1
+   FC =  0.5
+   TNOM =  27
)

.MODEL IRF451 NMOS (
+   VTO =  3.9943
+   KP =  1.0326e-06
+   LAMBDA =  0
+   PHI =  0.6
+   GAMMA =  0
+   RD =  0.27735
+   RS =  0.01
+   IS =  0.00071438
+   CGBO =  0
+   CGDO =  4.4933e-12
+   CGSO =  5.0987e-11
+   CBD =  1e-09
+   CBS =  0
+   PB =  0.8
+   RSH =  0
+   CJ =  0
+   MJ =  0.5
+   CJSW =  0
+   MJSW =  0.5
+   JS =  0
+   TOX =  2e-06
+   NSUB =  0
+   NSS =  0
+   TPG =  1
+   LD =  0
+   U0 =  600
+   KF =  0
+   AF =  1
+   FC =  0.5
+   TNOM =  27
)

.MODEL IRF452 NMOS (
+   VTO =  3.9943
+   KP =  1.0326e-06
+   LAMBDA =  0
+   PHI =  0.6
+   GAMMA =  0
+   RD =  0.27735
+   RS =  0.01
+   IS =  0.00071438
+   CGBO =  0
+   CGDO =  4.0434e-12
+   CGSO =  5.1005e-11
+   CBD =  1e-09
+   CBS =  0
+   PB =  0.8
+   RSH =  0
+   CJ =  0
+   MJ =  0.5