
.MODEL COMMONe NPN (
+   IS =  1e-16
+   BF =  100
+   BR =  0.96
+   RB =  0
+   RE =  0
+   RC =  0
+   CJS =  0
+   CJE =  0
+   CJC =  0
+   VJE =  0.75
+   VJC =  0.75
+   TF =  0
+   TR =  0
+   MJE =  0.33
+   MJC =  0.33
+   VA =  50
+   ISE =  0
+   IKF =  1e+30
+   NE =  1.5
+   NF =  1
+   NR =  1
+   VAR =  1e+30
+   IKR =  1e+30
+   ISC =  0
+   NC =  2
+   IRB =  1e+30
+   RBM =  0
+   XTF =  0
+   VTF =  1e+30
+   ITF =  0
+   PTF =  0
+   XCJC =  1
+   VJS =  0.75
+   MJS =  0
+   XTB =  0
+   EG =  1.11
+   XTI =  3
+   KF =  0
+   AF =  1
+   FC =  0.5
+   TNOM =  27
)

.MODEL QNL NPN (
+   IS =  1e-16
+   BF =  80
+   BR =  0.96
+   RB =  100
+   RE =  0
+   RC =  0
+   CJS =  2e-12
+   CJE =  3e-12
+   CJC =  2e-12
+   VJE =  0.75
+   VJC =  0.75
+   TF =  3e-10
+   TR =  6e-09
+   MJE =  0.33
+   MJC =  0.33
+   VA =  50
+   ISE =  0
+   IKF =  1e+30
+   NE =  1.5
+   NF =  1
+   NR =  1
+   VAR =  1e+30
+   IKR =  1e+30
+   ISC =  0
+   NC =  2
+   IRB =  1e+30
+   RBM =  0
+   XTF =  0
+   VTF =  1e+30
+   ITF =  0
+   PTF =  0
+   XCJC =  1
+   VJS =  0.75
+   MJS =  0
+   XTB =  0
+   EG =  1.11
+   XTI =  3
+   KF =  0
+   AF =  1
+   FC =  0.5
+   TNOM =  27
)

.MODEL QND NPN (
+   IS =  1e-16
+   BF =  50
+   BR =  0.96
+   RB =  70
+   RE =  0
+   RC =  40
+   CJS =  2e-12
+   CJE =  9e-13
+   CJC =  1.5e-12
+   VJE =  0.75
+   VJC =  0.85
+   TF =  1e-10
+   TR =  1e-08
+   MJE =  0.33
+   MJC =  0.33
+   VA =  50
+   ISE =  0
+   IKF =  1e+30
+   NE =  1.5
+   NF =  1
+   NR =  1
+   VAR =  1e+30
+   IKR =  1e+30
+   ISC =  0
+   NC =  2
+   IRB =  1e+30
+   RBM =  0
+   XTF =  0
+   VTF =  1e+30
+   ITF =  0
+   PTF =  0
+   XCJC =  1
+   VJS =  0.75
+   MJS =  0
+   XTB =  0
+   EG =  1.11
+   XTI =  3
+   KF =  0
+   AF =  1
+   FC =  0.5
+   TNOM =  27
)

.MODEL oszil NPN (
+   IS =  1e-16
+   BF =  49
+   BR =  0.96
+   RB =  0
+   RE =  0
+   RC =  0
+   CJS =  0
+   CJE =  1e-10
+   CJC =  1e-10
+   VJE =  0.75
+   VJC =  0.75
+   TF =  1e-10
+   TR =  1e-10
+   MJE =  0.33
+   MJC =  0.33
+   VA =  50
+   ISE =  0
+   IKF =  1e+30
+   NE =  1.5
+   NF =  1
+   NR =  1
+   VAR =  1e+30
+   IKR =  1e+30
+   ISC =  0
+   NC =  2
+   IRB =  1e+30
+   RBM =  0
+   XTF =  0
+   VTF =  1e+30
+   ITF =  0
+   PTF =  0
+   XCJC =  1
+   VJS =  0.75
+   MJS =  0
+   XTB =  0
+   EG =  1.11
+   XTI =  3
+   KF =  0
+   AF =  1
+   FC =  0.5
+   TNOM =  27
)
