***********************************************
*ELECTRONICS WORKBENCH MODEL FILE             * 
*MODELS GENERATED BY: A.MICHEAL/R.TALOS       *
*(c) 1996 INTERACTIVE IMAGE TECHNOLOGIES LTD. * 
*TORONTO, ONTARIO (416)977-5550.              *
***********************************************
.MODEL BC107 NPN (
+   IS =  2.2874e-14
+   BF =  417.75
+   BR =  1.3169
+   RB =  0
+   RE =  0
+   RC =  1.2045
+   CJS =  0
+   CJE =  1.3491e-11
+   CJC =  6.2051e-12
+   VJE =  0.66248
+   VJC =  0.66321
+   TF =  4.2764e-10
+   TR =  1e-08
+   MJE =  0.61694
+   MJC =  0.32498
+   VA =  44.483
+   ISE =  2.2874e-14
+   IKF =  20
+   NE =  1.3575
+   NF =  1
+   NR =  1
+   VAR =  100
+   IKR =  0.01
+   ISC =  2.2874e-14
+   NC =  2.997
+   IRB =  1e+30
+   RBM =  0
+   XTF =  0
+   VTF =  1.4094
+   ITF =  329.92
+   PTF =  0
+   XCJC =  1
+   VJS =  0.75
+   MJS =  0
+   XTB =  0
+   EG =  1.11
+   XTI =  3
+   KF =  0
+   AF =  1
+   FC =  0.5
+   TNOM =  27
)

.MODEL BC108 NPN (
+   IS =  2.2874e-14
+   BF =  417.75
+   BR =  1.3169
+   RB =  0
+   RE =  0
+   RC =  1.2045
+   CJS =  0
+   CJE =  1.3491e-11
+   CJC =  6.2051e-12
+   VJE =  0.66248
+   VJC =  0.66321
+   TF =  4.2764e-10
+   TR =  1e-08
+   MJE =  0.61694
+   MJC =  0.32498
+   VA =  44.483
+   ISE =  2.2874e-14
+   IKF =  20
+   NE =  1.3575
+   NF =  1
+   NR =  1
+   VAR =  100
+   IKR =  0.01
+   ISC =  2.2874e-14
+   NC =  2.997
+   IRB =  1e+30
+   RBM =  0
+   XTF =  0
+   VTF =  1.4094
+   ITF =  329.92
+   PTF =  0
+   XCJC =  1
+   VJS =  0.75
+   MJS =  0
+   XTB =  0
+   EG =  1.11
+   XTI =  3
+   KF =  0
+   AF =  1
+   FC =  0.5
+   TNOM =  27
)

.MODEL BC109 NPN (
+   IS =  2.2874e-14
+   BF =  417.75
+   BR =  1.3169
+   RB =  0
+   RE =  0
+   RC =  1.2045
+   CJS =  0
+   CJE =  1.3491e-11
+   CJC =  6.2051e-12
+   VJE =  0.66248
+   VJC =  0.66321
+   TF =  4.2764e-10
+   TR =  1e-08
+   MJE =  0.61694
+   MJC =  0.32498
+   VA =  44.483
+   ISE =  2.2874e-14
+   IKF =  20
+   NE =  1.3575
+   NF =  1
+   NR =  1
+   VAR =  100
+   IKR =  0.01
+   ISC =  2.2874e-14
+   NC =  2.997
+   IRB =  1e+30
+   RBM =  0
+   XTF =  0
+   VTF =  1.4094
+   ITF =  329.92
+   PTF =  0
+   XCJC =  1
+   VJS =  0.75
+   MJS =  0
+   XTB =  0
+   EG =  1.11
+   XTI =  3
+   KF =  0
+   AF =  1
+   FC =  0.5
+   TNOM =  27
)

.MODEL BC140 NPN (
+   IS =  6.7342e-12
+   BF =  100
+   BR =  0.1001
+   RB =  0
+   RE =  0
+   RC =  0
+   CJS =  0
+   CJE =  9.485e-11
+   CJC =  6.0728e-11
+   VJE =  0.75
+   VJC =  0.75
+   TF =  1.6409e-09
+   TR =  1e-08
+   MJE =  0.33333
+   MJC =  0.33333
+   VA =  100
+   ISE =  0
+   IKF =  0.01
+   NE =  1.5
+   NF =  1
+   NR =  1
+   VAR =  100
+   IKR =  0.01001
+   ISC =  6.7342e-12
+   NC =  2
+   IRB =  1e+30
+   RBM =  0
+   XTF =  10
+   VTF =  10
+   ITF =  1
+   PTF =  0
+   XCJC =  1
+   VJS =  0.75
+   MJS =  0
+   XTB =  0
+   EG =  1.11
+   XTI =  3
+   KF =  0
+   AF =  1
+   FC =  0.5
+   TNOM =  27
)

.MODEL BC141 NPN (
+   IS =  6.7342e-12
+   BF =  160
+   BR =  2
+   RB =  0
+   RE =  0
+   RC =  0
+   CJS =  0
+   CJE =  9.485e-11
+   CJC =  6.0728e-11
+   VJE =  0.75
+   VJC =  0.75
+   TF =  1.6409e-09
+   TR =  1e-08
+   MJE =  0.33333
+   MJC =  0.33333
+   VA =  100
+   ISE =  0
+   IKF =  0.01
+   NE =  1.5
+   NF =  1
+   NR =  1
+   VAR =  100
+   IKR =  0.01001
+   ISC =  6.7342e-12
+   NC =  2
+   IRB =  1e+30
+   RBM =  0
+   XTF =  10
+   VTF =  10
+   ITF =  1
+   PTF =  0
+   XCJC =  1
+   VJS =  0.75
+   MJS =  0
+   XTB =  0
+   EG =  1.11
+   XTI =  3
+   KF =  0
+   AF =  1
+   FC =  0.5
+   TNOM =  27
)

.MODEL BC337 NPN (
+   IS =  1.6084e-10
+   BF =  193.06
+   BR =  499.5
+   RB =  0
+   RE =  0
+   RC =  0.27262
+   CJS =  0
+   CJE =  2e-12
+   CJC =  1.2146e-11
+   VJE =  0.75
+   VJC =  0.75
+   TF =  5.7068e-10
+   TR =  1e-08
+   MJE =  0.33
+   MJC =  0.33333
+   VA =  100
+   ISE =  1.6084e-10
+   IKF =  4.9989
+   NE =  1.7609
+   NF =  1
+   NR =  1
+   VAR =  100
+   IKR =  0.11899
+   ISC =  9.8677e-08
+   NC =  2.0445
+   IRB =  1e+30
+   RBM =  0
+   XTF =  6737
+   VTF =  1.5621
+   ITF =  22.128
+   PTF =  0
+   XCJC =  1
+   VJS =  0.75
+   MJS =  0
+   XTB =  0
+   EG =  1.11
+   XTI =  3
+   KF =  0
+   AF =  1
+   FC =  0.5
+   TNOM =  27
)

.MODEL BC337A NPN (
+   IS =  1.6084e-10
+   BF =  193.06
+   BR =  499.5
+   RB =  0
+   RE =  0
+   RC =  0.27262
+   CJS =  0
+   CJE =  2e-12
+   CJC =  1.2146e-11
+   VJE =  0.75
+   VJC =  0.75
+   TF =  5.7068e-10
+   TR =  1e-08
+   MJE =  0.33
+   MJC =  0.33333
+   VA =  100
+   ISE =  1.6084e-10
+   IKF =  4.9989
+   NE =  1.7609
+   NF =  1
+   NR =  1
+   VAR =  100
+   IKR =  0.11899
+   ISC =  9.8677e-08
+   NC =  2.0445
+   IRB =  1e+30
+   RBM =  0
+   XTF =  6737
+   VTF =  1.5621
+   ITF =  22.128
+   PTF =  0
+   XCJC =  1
+   VJS =  0.75
+   MJS =  0
+   XTB =  0
+   EG =  1.11
+   XTI =  3
+   KF =  0
+   AF =  1
+   FC =  0.5
+   TNOM =  27
)

.MODEL BC338 NPN (
+   IS =  1.6084e-10
+   BF =  193.06
+   BR =  499.5
+   RB =  0
+   RE =  0
+   RC =  0.27262
+   CJS =  0
+   CJE =  2e-12
+   CJC =  1.2146e-11
+   VJE =  0.75
+   VJC =  0.75
+   TF =  5.7068e-10
+   TR =  1e-08
+   MJE =  0.33
+   MJC =  0.33333
+   VA =  100
+   ISE =  1.6084e-10
+   IKF =  4.9989
+   NE =  1.7609
+   NF =  1
+   NR =  1
+   VAR =  100
+   IKR =  0.11899
+   ISC =  9.8677e-08
+   NC =  2.0445
+   IRB =  1e+30
+   RBM =  0
+   XTF =  6737
+   VTF =  1.5621
+   ITF =  22.128
+   PTF =  0
+   XCJC =  1
+   VJS =  0.75
+   MJS =  0
+   XTB =  0
+   EG =  1.11
+   XTI =  3
+   KF =  0
+   AF =  1
+   FC =  0.5
+   TNOM =  27
)

.MODEL BC368 NPN (
+   IS =  3.2168e-10
+   BF =  178.76
+   BR =  17.704
+   RB =  0
+   RE =  0
+   RC =  0.087578
+   CJS =  0
+   CJE =  2e-12
+   CJC =  7.8873e-11
+   VJE =  0.75
+   VJC =  0.75
+   TF =  1.1326e-09
+   TR =  1e-08
+   MJE =  0.33
+   MJC =  0.33333
+   VA =  100
+   ISE =  3.2168e-10
+   IKF =  3.202
+   NE =  1.6287
+   NF =  1
+   NR =  1
+   VAR =  100
+   IKR =  0.080707
+   ISC =  5.4473e-10
+   NC =  1.6166
+   IRB =  1e+30
+   RBM =  0
+   XTF =  0
+   VTF =  7.9782
+   ITF =  160.04
+   PTF =  0
+   XCJC =  1
+   VJS =  0.75
+   MJS =  0
+   XTB =  0
+   EG =  1.11
+   XTI =  3
+   KF =  0
+   AF =  1
+   FC =  0.5
+   TNOM =  27
)

.MODEL BC375 NPN (
+   IS =  1.0756e-08
+   BF =  250
+   BR =  0.1001
+   RB =  0
+   RE =  0
+   RC =  0
+   CJS =  0
+   CJE =  2e-12
+   CJC =  2e-12
+   VJE =  0.75
+   VJC =  0.75
+   TF =  9.3865e-11
+   TR =  1e-08
+   MJE =  0.33
+   MJC =  0.33
+   VA =  100
+   ISE =  0
+   IKF =  0.01
+   NE =  1.5
+   NF =  1
+   NR =  1
+   VAR =  100
+   IKR =  0.01001
+   ISC =  1.0756e-08
+   NC =  2
+   IRB =  1e+30
+   RBM =  0
+   XTF =  10
+   VTF =  10
+   ITF =  1
+   PTF =  0
+   XCJC =  1
+   VJS =  0.75
+   MJS =  0
+   XTB =  0
+   EG =  1.11
+   XTI =  3
+   KF =  0
+   AF =  1
+   FC =  0.5
+   TNOM =  27
)

.MODEL BC517 NPN (
+   IS =  1.5366e-11
+   BF =  1498.5
+   BR =  0.1001
+   RB =  0
+   RE =  0
+   RC =  0
+   CJS =  0
+   CJE =  2e-12
+   CJC =  2e-12
+   VJE =  0.75
+   VJC =  0.75
+   TF =  5.4895e-10
+   TR =  1e-08
+   MJE =  0.33
+   MJC =  0.33
+   VA =  100
+   ISE =  0
+   IKF =  0.01
+   NE =  1.5
+   NF =  1
+   NR =  1
+   VAR =  100
+   IKR =  0.01001
+   ISC =  1.5366e-11
+   NC =  2
+   IRB =  1e+30
+   RBM =  0
+   XTF =  10
+   VTF =  10
+   ITF =  1
+   PTF =  0
+   XCJC =  1
+   VJS =  0.75
+   MJS =  0
+   XTB =  0
+   EG =  1.11
+   XTI =  3
+   KF =  0
+   AF =  1
+   FC =  0.5
+   TNOM =  27
)

.MODEL BC546 NPN (
+   IS =  7.0489e-15
+   BF =  265.95
+   BR =  2.1159
+   RB =  0
+   RE =  0
+   RC =  1.0359
+   CJS =  0
+   CJE =  1.2062e-11
+   CJC =  5.5001e-12
+   VJE =  1.4422
+   VJC =  0.57006
+   TF =  4.7133e-10
+   TR =  1e-08
+   MJE =  1
+   MJC =  0.273
+   VA =  100
+   ISE =  1.8609e-14
+   IKF =  0.41442
+   NE =  1.3833
+   NF =  1
+   NR =  1
+   VAR =  100
+   IKR =  19.98
+   ISC =  8.8678e-09
+   NC =  2.9996
+   IRB =  1e+30
+   RBM =  0
+   XTF =  109.34
+   VTF =  6.3555
+   ITF =  4.4181
+   PTF =  0
+   XCJC =  1
+   VJS =  0.75
+   MJS =  0
+   XTB =  0
+   EG =  1.11
+   XTI =  3
+   KF =  0
+   AF =  1
+   FC =  0.5
+   TNOM =  27
)

.MODEL BC547 NPN (
+   IS =  7.0489e-15
+   BF =  265.95
+   BR =  2.1159
+   RB =  0
+   RE =  0
+   RC =  1.0359
+   CJS =  0
+   CJE =  1.2062e-11
+   CJC =  5.5001e-12
+   VJE =  1.4422
+   VJC =  0.57006
+   TF =  4.7133e-10
+   TR =  1e-08
+   MJE =  1
+   MJC =  0.273
+   VA =  100
+   ISE =  1.8609e-14
+   IKF =  0.41442
+   NE =  1.3833
+   NF =  1
+   NR =  1
+   VAR =  100
+   IKR =  19.98
+   ISC =  8.8678e-09
+   NC =  2.9996
+   IRB =  1e+30
+   RBM =  0
+   XTF =  109.34
+   VTF =  6.3555
+   ITF =  4.4181
+   PTF =  0
+   XCJC =  1
+   VJS =  0.75
+   MJS =  0
+   XTB =  0
+   EG =  1.11
+   XTI =  3
+   KF =  0
+   AF =  1
+   FC =  0.5
+   TNOM =  27
)

.MODEL BC548 NPN (
+   IS =  7.0489e-15
+   BF =  265.95
+   BR =  2.1159
+   RB =  0
+   RE =  0
+   RC =  1.0359
+   CJS =  0
+   CJE =  1.2062e-11
+   CJC =  5.5001e-12
+   VJE =  1.4422
+   VJC =  0.57006
+   TF =  4.7133e-10
+   TR =  1e-08
+   MJE =  1
+   MJC =  0.273
+   VA =  100
+   ISE =  1.8609e-14
+   IKF =  0.41442
+   NE =  1.3833
+   NF =  1
+   NR =  1
+   VAR =  100
+   IKR =  19.98
+   ISC =  8.8678e-09
+   NC =  2.9996
+   IRB =  1e+30
+   RBM =  0
+   XTF =  109.34
+   VTF =  6.3555
+   ITF =  4.4181
+   PTF =  0
+   XCJC =  1
+   VJS =  0.75
+   MJS =  0
+   XTB =  0
+   EG =  1.11
+   XTI =  3
+   KF =  0
+   AF =  1
+   FC =  0.5
+   TNOM =  27
)

.MODEL BC549 NPN (
+   IS =  2.2874e-14
+   BF =  410.47
+   BR =  27.935
+   RB =  0
+   RE =  0
+   RC =  2.1201
+   CJS =  0
+   CJE =  1.1987e-11
+   CJC =  5.5001e-12
+   VJE =  0.92225
+   VJC =  0.57006
+   TF =  4.6736e-10
+   TR =  1e-08
+   MJE =  0.652
+   MJC =  0.273
+   VA =  100
+   ISE =  2.2874e-14
+   IKF =  0.9989
+   NE =  1.3726
+   NF =  1
+   NR =  1
+   VAR =  100
+   IKR =  0.010121
+   ISC =  2.2809e-10
+   NC =  1.7761
+   IRB =  1e+30
+   RBM =  0
+   XTF =  155.26
+   VTF =  10.938
+   ITF =  4.2362
+   PTF =  0
+   XCJC =  1
+   VJS =  0.75
+   MJS =  0
+   XTB =  0
+   EG =  1.11
+   XTI =  3
+   KF =  0
+   AF =  1
+   FC =  0.5
+   TNOM =  27
)

.MODEL BC550 NPN (
+   IS =  2.2874e-14
+   BF =  410.47
+   BR =  27.935
+   RB =  0
+   RE =  0
+   RC =  2.1201
+   CJS =  0
+   CJE =  1.1987e-11
+   CJC =  5.5001e-12
+   VJE =  0.92225
+   VJC =  0.57006
+   TF =  4.6736e-10
+   TR =  1e-08
+   MJE =  0.652
+   MJC =  0.273
+   VA =  100
+   ISE =  2.2874e-14
+   IKF =  0.9989
+   NE =  1.3726
+   NF =  1
+   NR =  1
+   VAR =  100
+   IKR =  0.010121
+   ISC =  2.2809e-10
+   NC =  1.7761
+   IRB =  1e+30
+   RBM =  0
+   XTF =  155.26
+   VTF =  10.938
+   ITF =  4.2362
+   PTF =  0
+   XCJC =  1
+   VJS =  0.75
+   MJS =  0
+   XTB =  0
+   EG =  1.11
+   XTI =  3
+   KF =  0
+   AF =  1
+   FC =  0.5
+   TNOM =  27
)

.MODEL BC617 NPN (
+   IS =  6.4335e-13
+   BF =  1498.5
+   BR =  0.1001
+   RB =  0
+   RE =  0
+   RC =  0
+   CJS =  0
+   CJE =  2e-12
+   CJC =  1.2069e-11
+   VJE =  0.75
+   VJC =  0.75
+   TF =  1.1407e-10
+   TR =  1e-08
+   MJE =  0.33
+   MJC =  0.33333
+   VA =  100
+   ISE =  0
+   IKF =  0.01
+   NE =  1.5
+   NF =  1
+   NR =  1
+   VAR =  100
+   IKR =  0.01001
+   ISC =  6.4335e-13
+   NC =  2
+   IRB =  1e+30
+   RBM =  0
+   XTF =  10
+   VTF =  10
+   ITF =  1
+   PTF =  0
+   XCJC =  1
+   VJS =  0.75
+   MJS =  0
+   XTB =  0
+   EG =  1.11
+   XTI =  3
+   KF =  0
+   AF =  1
+   FC =  0.5
+   TNOM =  27
)

.MODEL BC618 NPN (
+   IS =  6.4335e-13
+   BF =  1498.5
+   BR =  0.1001
+   RB =  0
+   RE =  0
+   RC =  0
+   CJS =  0
+   CJE =  2e-12
+   CJC =  1.2069e-11
+   VJE =  0.75
+   VJC =  0.75
+   TF =  1.1407e-10
+   TR =  1e-08
+   MJE =  0.33
+   MJC =  0.33333
+   VA =  100
+   ISE =  0
+   IKF =  0.01
+   NE =  1.5
+   NF =  1
+   NR =  1
+   VAR =  100
+   IKR =  0.01001
+   ISC =  6.4335e-13
+   NC =  2
+   IRB =  1e+30
+   RBM =  0
+   XTF =  10
+   VTF =  10
+   ITF =  1
+   PTF =  0
+   XCJC =  1
+   VJS =  0.75
+   MJS =  0
+   XTB =  0
+   EG =  1.11
+   XTI =  3
+   KF =  0
+   AF =  1
+   FC =  0.5
+   TNOM =  27
)

.MODEL BC635 NPN (
+   IS =  1.6084e-10
+   BF =  116.88
+   BR =  499.5
+   RB =  0
+   RE =  0
+   RC =  0.5281
+   CJS =  0
+   CJE =  2e-12
+   CJC =  2e-12
+   VJE =  0.75
+   VJC =  0.75
+   TF =  8.6837e-10
+   TR =  1e-08
+   MJE =  0.33
+   MJC =  0.33
+   VA =  100
+   ISE =  1.6084e-10
+   IKF =  1.6639
+   NE =  1.515
+   NF =  1
+   NR =  1
+   VAR =  100
+   IKR =  19.98
+   ISC =  1.9764e-05
+   NC =  3
+   IRB =  1e+30
+   RBM =  0
+   XTF =  10.012
+   VTF =  0.10605
+   ITF =  127.6
+   PTF =  0
+   XCJC =  1
+   VJS =  0.75
+   MJS =  0
+   XTB =  0
+   EG =  1.11
+   XTI =  3
+   KF =  0
+   AF =  1
+   FC =  0.5
+   TNOM =  27
)

.MODEL BC637 NPN (
+   IS =  1.6084e-10
+   BF =  116.88
+   BR =  499.5
+   RB =  0
+   RE =  0
+   RC =  0.5281
+   CJS =  0
+   CJE =  2e-12
+   CJC =  2e-12
+   VJE =  0.75
+   VJC =  0.75
+   TF =  8.6837e-10
+   TR =  1e-08
+   MJE =  0.33
+   MJC =  0.33
+   VA =  100
+   ISE =  1.6084e-10
+   IKF =  1.6639
+   NE =  1.515
+   NF =  1
+   NR =  1
+   VAR =  100
+   IKR =  19.98
+   ISC =  1.9764e-05
+   NC =  3
+   IRB =  1e+30
+   RBM =  0
+   XTF =  10.012
+   VTF =  0.10605
+   ITF =  127.6
+   PTF =  0
+   XCJC =  1
+   VJS =  0.75
+   MJS =  0
+   XTB =  0
+   EG =  1.11
+   XTI =  3
+   KF =  0
+   AF =  1
+   FC =  0.5
+   TNOM =  27
)

.MODEL BC639 NPN (
+   IS =  1.6084e-10
+   BF =  116.88
+   BR =  499.5
+   RB =  0
+   RE =  0
+   RC =  0.5281
+   CJS =  0
+   CJE =  2e-12
+   CJC =  2e-12
+   VJE =  0.75
+   VJC =  0.75
+   TF =  8.6837e-10
+   TR =  1e-08
+   MJE =  0.33
+   MJC =  0.33
+   VA =  100
+   ISE =  1.6084e-10
+   IKF =  1.6639
+   NE =  1.515
+   NF =  1
+   NR =  1
+   VAR =  100
+   IKR =  19.98
+   ISC =  1.9764e-05
+   NC =  3
+   IRB =  1e+30
+   RBM =  0
+   XTF =  10.012
+   VTF =  0.10605
+   ITF =  127.6
+   PTF =  0
+   XCJC =  1
+   VJS =  0.75
+   MJS =  0
+   XTB =  0
+   EG =  1.11
+   XTI =  3
+   KF =  0
+   AF =  1
+   FC =  0.5
+   TNOM =  27
)

.MODEL BC875 NPN (
+   IS =  1.5366e-10
+   BF =  1498.5
+   BR =  0.1001
+   RB =  0
+   RE =  0
+   RC =  0
+   CJS =  0
+   CJE =  2e-12
+   CJC =  2e-12
+   VJE =  0.75
+   VJC =  0.75
+   TF =  8.9218e-11
+   TR =  1e-08
+   MJE =  0.33
+   MJC =  0.33
+   VA =  100
+   ISE =  0
+   IKF =  0.01
+   NE =  1.5
+   NF =  1
+   NR =  1
+   VAR =  100
+   IKR =  0.01001
+   ISC =  1.5366e-10
+   NC =  2
+   IRB =  1e+30
+   RBM =  0
+   XTF =  10
+   VTF =  10
+   ITF =  1
+   PTF =  0
+   XCJC =  1
+   VJS =  0.75
+   MJS =  0
+   XTB =  0
+   EG =  1.11
+   XTI =  3
+   KF =  0
+   AF =  1
+   FC =  0.5
+   TNOM =  27
)

.MODEL BC877 NPN (
+   IS =  1.5366e-10
+   BF =  1498.5
+   BR =  0.1001
+   RB =  0
+   RE =  0
+   RC =  0
+   CJS =  0
+   CJE =  2e-12
+   CJC =  2e-12
+   VJE =  0.75
+   VJC =  0.75
+   TF =  8.9218e-11
+   TR =  1e-08
+   MJE =  0.33
+   MJC =  0.33
+   VA =  100
+   ISE =  0
+   IKF =  0.01
+   NE =  1.5
+   NF =  1
+   NR =  1
+   VAR =  100
+   IKR =  0.01001
+   ISC =  1.5366e-10
+   NC =  2
+   IRB =  1e+30
+   RBM =  0
+   XTF =  10
+   VTF =  10
+   ITF =  1
+   PTF =  0
+   XCJC =  1
+   VJS =  0.75
+   MJS =  0
+   XTB =  0
+   EG =  1.11
+   XTI =  3
+   KF =  0
+   AF =  1
+   FC =  0.5
+   TNOM =  27
)

.MODEL BC879 NPN (
+   IS =  1.5366e-10
+   BF =  1498.5
+   BR =  0.1001
+   RB =  0
+   RE =  0
+   RC =  0
+   CJS =  0
+   CJE =  2e-12
+   CJC =  2e-12
+   VJE =  0.75
+   VJC =  0.75
+   TF =  8.9218e-11
+   TR =  1e-08
+   MJE =  0.33
+   MJC =  0.33
+   VA =  100
+   ISE =  0
+   IKF =  0.01
+   NE =  1.5
+   NF =  1
+   NR =  1
+   VAR =  100
+   IKR =  0.01001
+   ISC =  1.5366e-10
+   NC =  2
+   IRB =  1e+30
+   RBM =  0
+   XTF =  10
+   VTF =  10
+   ITF =  1
+   PTF =  0
+   XCJC =  1
+   VJS =  0.75
+   MJS =  0
+   XTB =  0
+   EG =  1.11
+   XTI =  3
+   KF =  0
+   AF =  1
+   FC =  0.5
+   TNOM =  27
)

.MODEL BCX22 NPN (
+   IS =  9.6503e-11
+   BF =  63
+   BR =  0.1001
+   RB =  0
+   RE =  0
+   RC =  0
+   CJS =  0
+   CJE =  2e-12
+   CJC =  2.9149e-11
+   VJE =  0.75
+   VJC =  0.75
+   TF =  1.507e-09
+   TR =  1e-08
+   MJE =  0.33
+   MJC =  0.33333
+   VA =  100
+   ISE =  0
+   IKF =  0.01
+   NE =  1.5
+   NF =  1
+   NR =  1
+   VAR =  100
+   IKR =  0.01001
+   ISC =  9.6503e-11
+   NC =  2
+   IRB =  1e+30
+   RBM =  0
+   XTF =  10
+   VTF =  10
+   ITF =  1
+   PTF =  0
+   XCJC =  1
+   VJS =  0.75
+   MJS =  0
+   XTB =  0
+   EG =  1.11
+   XTI =  3
+   KF =  0
+   AF =  1
+   FC =  0.5
+   TNOM =  27
)

.MODEL BCX58 NPN (
+   IS =  8.0419e-12
+   BF =  350
+   BR =  0.1001
+   RB =  0
+   RE =  0
+   RC =  0
+   CJS =  0
+   CJE =  2e-12
+   CJC =  2e-12
+   VJE =  0.75
+   VJC =  0.75
+   TF =  1.2453e-09
+   TR =  1e-08
+   MJE =  0.33
+   MJC =  0.33
+   VA =  100
+   ISE =  0
+   IKF =  0.01
+   NE =  1.5
+   NF =  1
+   NR =  1
+   VAR =  100
+   IKR =  0.01001
+   ISC =  8.0419e-12
+   NC =  2
+   IRB =  1e+30
+   RBM =  0
+   XTF =  10
+   VTF =  10
+   ITF =  1
+   PTF =  0
+   XCJC =  1
+   VJS =  0.75
+   MJS =  0
+   XTB =  0
+   EG =  1.11
+   XTI =  3
+   KF =  0
+   AF =  1
+   FC =  0.5
+   TNOM =  27
)

.MODEL BCX59 NPN (
+   IS =  8.0419e-12
+   BF =  350
+   BR =  0.1001
+   RB =  0
+   RE =  0
+   RC =  0
+   CJS =  0
+   CJE =  2e-12
+   CJC =  2e-12
+   VJE =  0.75
+   VJC =  0.75
+   TF =  1.2453e-09
+   TR =  1e-08
+   MJE =  0.33
+   MJC =  0.33
+   VA =  100
+   ISE =  0
+   IKF =  0.01
+   NE =  1.5
+   NF =  1
+   NR =  1
+   VAR =  100
+   IKR =  0.01001
+   ISC =  8.0419e-12
+   NC =  2
+   IRB =  1e+30
+   RBM =  0
+   XTF =  10
+   VTF =  10
+   ITF =  1
+   PTF =  0
+   XCJC =  1
+   VJS =  0.75
+   MJS =  0
+   XTB =  0
+   EG =  1.11
+   XTI =  3
+   KF =  0
+   AF =  1
+   FC =  0.5
+   TNOM =  27
)

.MODEL BCY56 NPN (
+   IS =  2.1479e-13
+   BF =  200
+   BR =  1.2936
+   RB =  0
+   RE =  0
+   RC =  0
+   CJS =  0
+   CJE =  2e-12
+   CJC =  8.8732e-12
+   VJE =  0.75
+   VJC =  0.75
+   TF =  6.0032e-10
+   TR =  1e-08
+   MJE =  0.33
+   MJC =  0.33333
+   VA =  109.99
+   ISE =  0
+   IKF =  0.01
+   NE =  1.5
+   NF =  1
+   NR =  1
+   VAR =  100
+   IKR =  0.01001
+   ISC =  2.1479e-13
+   NC =  2
+   IRB =  1e+30
+   RBM =  0
+   XTF =  10
+   VTF =  10
+   ITF =  1
+   PTF =  0
+   XCJC =  1
+   VJS =  0.75
+   MJS =  0
+   XTB =  0
+   EG =  1.11
+   XTI =  3
+   KF =  0
+   AF =  1
+   FC =  0.5
+   TNOM =  27
)

.MODEL BCY57 NPN (
+   IS =  2.1479e-13
+   BF =  400
+   BR =  1.2188
+   RB =  0
+   RE =  0
+   RC =  0
+   CJS =  0
+   CJE =  2e-12
+   CJC =  8.8732e-12
+   VJE =  0.75
+   VJC =  0.75
+   TF =  4.2084e-10
+   TR =  1e-08
+   MJE =  0.33
+   MJC =  0.33333
+   VA =  52.843
+   ISE =  0
+   IKF =  0.01
+   NE =  1.5
+   NF =  1
+   NR =  1
+   VAR =  100
+   IKR =  0.01001
+   ISC =  2.1479e-13
+   NC =  2
+   IRB =  1e+30
+   RBM =  0
+   XTF =  10
+   VTF =  10
+   ITF =  1
+   PTF =  0
+   XCJC =  1
+   VJS =  0.75
+   MJS =  0
+   XTB =  0
+   EG =  1.11
+   XTI =  3
+   KF =  0
+   AF =  1
+   FC =  0.5
+   TNOM =  27
)

.MODEL BCY58 NPN (
+   IS =  5.5581e-11
+   BF =  1498.5
+   BR =  2
+   RB =  0
+   RE =  0
+   RC =  0.01
+   CJS =  0
+   CJE =  1.7784e-11
+   CJC =  1.2146e-11
+   VJE =  0.75
+   VJC =  0.75
+   TF =  4.2968e-10
+   TR =  1.9085e-07
+   MJE =  0.33333
+   MJC =  0.33333
+   VA =  999
+   ISE =  0.999
+   IKF =  20
+   NE =  1.998
+   NF =  1
+   NR =  1
+   VAR =  100
+   IKR =  1
+   ISC =  5.5581e-10
+   NC =  1.5
+   IRB =  1e+30
+   RBM =  0
+   XTF =  756.85
+   VTF =  726.08
+   ITF =  6.9467
+   PTF =  0
+   XCJC =  1
+   VJS =  0.75
+   MJS =  0
+   XTB =  0
+   EG =  1.11
+   XTI =  3
+   KF =  0
+   AF =  1
+   FC =  0.5
+   TNOM =  27
)

.MODEL BCY59 NPN (
+   IS =  5.5581e-11
+   BF =  1498.5
+   BR =  2
+   RB =  0
+   RE =  0
+   RC =  0.01
+   CJS =  0
+   CJE =  1.7784e-11
+   CJC =  1.2146e-11
+   VJE =  0.75
+   VJC =  0.75
+   TF =  4.2968e-10
+   TR =  1.9085e-07
+   MJE =  0.33333
+   MJC =  0.33333
+   VA =  999
+   ISE =  0.999
+   IKF =  20
+   NE =  1.998
+   NF =  1
+   NR =  1
+   VAR =  100
+   IKR =  1
+   ISC =  5.5581e-10
+   NC =  1.5
+   IRB =  1e+30
+   RBM =  0
+   XTF =  756.85
+   VTF =  726.08
+   ITF =  6.9467
+   PTF =  0
+   XCJC =  1
+   VJS =  0.75
+   MJS =  0
+   XTB =  0
+   EG =  1.11
+   XTI =  3
+   KF =  0
+   AF =  1
+   FC =  0.5
+   TNOM =  27
)

.MODEL BCY65 NPN (
+   IS =  4.0209e-12
+   BF =  170
+   BR =  0.1001
+   RB =  0
+   RE =  0
+   RC =  0
+   CJS =  0
+   CJE =  1.7784e-11
+   CJC =  1.4575e-11
+   VJE =  0.75
+   VJC =  0.75
+   TF =  1.1306e-09
+   TR =  9.8975e-06
+   MJE =  0.33333
+   MJC =  0.33333
+   VA =  100
+   ISE =  0
+   IKF =  0.01
+   NE =  1.5
+   NF =  1
+   NR =  1
+   VAR =  100
+   IKR =  0.01001
+   ISC =  4.0209e-12
+   NC =  2
+   IRB =  1e+30
+   RBM =  0
+   XTF =  10
+   VTF =  10
+   ITF =  1
+   PTF =  0
+   XCJC =  1
+   VJS =  0.75
+   MJS =  0
+   XTB =  0
+   EG =  1.11
+   XTI =  3
+   KF =  0
+   AF =  1
+   FC =  0.5
+   TNOM =  27
)

.MODEL BCY87 NPN (
+   IS =  1e-14
+   BF =  275
+   BR =  1
+   RB =  0
+   RE =  0
+   RC =  0
+   CJS =  0
+   CJE =  2e-12
+   CJC =  8.5019e-12
+   VJE =  0.75
+   VJC =  0.75
+   TF =  1.2526e-08
+   TR =  1e-08
+   MJE =  0.33
+   MJC =  0.33333
+   VA =  100
+   ISE =  0
+   IKF =  0.01
+   NE =  1.5
+   NF =  1
+   NR =  1
+   VAR =  100
+   IKR =  0.01
+   ISC =  0
+   NC =  2
+   IRB =  1e+30
+   RBM =  0
+   XTF =  10
+   VTF =  10
+   ITF =  1
+   PTF =  0
+   XCJC =  1
+   VJS =  0.75
+   MJS =  0
+   XTB =  0
+   EG =  1.11
+   XTI =  3
+   KF =  0
+   AF =  1
+   FC =  0.5
+   TNOM =  27
)

.MODEL BCY88 NPN (
+   IS =  1e-14
+   BF =  275
+   BR =  1
+   RB =  0
+   RE =  0
+   RC =  0
+   CJS =  0
+   CJE =  2e-12
+   CJC =  8.5019e-12
+   VJE =  0.75
+   VJC =  0.75
+   TF =  1.2526e-08
+   TR =  1e-08
+   MJE =  0.33
+   MJC =  0.33333
+   VA =  100
+   ISE =  0
+   IKF =  0.01
+   NE =  1.5
+   NF =  1
+   NR =  1
+   VAR =  100
+   IKR =  0.01
+   ISC =  0
+   NC =  2
+   IRB =  1e+30
+   RBM =  0
+   XTF =  10
+   VTF =  10
+   ITF =  1
+   PTF =  0
+   XCJC =  1
+   VJS =  0.75
+   MJS =  0
+   XTB =  0
+   EG =  1.11
+   XTI =  3
+   KF =  0
+   AF =  1
+   FC =  0.5
+   TNOM =  27
)

.MODEL BCY89 NPN (
+   IS =  1e-14
+   BF =  275
+   BR =  1
+   RB =  0
+   RE =  0
+   RC =  0
+   CJS =  0
+   CJE =  2e-12
+   CJC =  8.5019e-12
+   VJE =  0.75
+   VJC =  0.75
+   TF =  1.2526e-08
+   TR =  1e-08
+   MJE =  0.33
+   MJC =  0.33333
+   VA =  100
+   ISE =  0
+   IKF =  0.01
+   NE =  1.5
+   NF =  1
+   NR =  1
+   VAR =  100
+   IKR =  0.01
+   ISC =  0
+   NC =  2
+   IRB =  1e+30
+   RBM =  0
+   XTF =  10
+   VTF =  10
+   ITF =  1
+   PTF =  0
+   XCJC =  1
+   VJS =  0.75
+   MJS =  0
+   XTB =  0
+   EG =  1.11
+   XTI =  3
+   KF =  0
+   AF =  1
+   FC =  0.5
+   TNOM =  27
)

.MODEL BF198 NPN (
+   IS =  1e-14
+   BF =  100
+   BR =  1
+   RB =  0
+   RE =  0
+   RC =  0
+   CJS =  0
+   CJE =  2e-12
+   CJC =  2e-12
+   VJE =  0.75
+   VJC =  0.75
+   TF =  3.6419e-10
+   TR =  1e-08
+   MJE =  0.33
+   MJC =  0.33
+   VA =  100
+   ISE =  0
+   IKF =  0.01
+   NE =  1.5
+   NF =  1
+   NR =  1
+   VAR =  100
+   IKR =  0.01
+   ISC =  0
+   NC =  2
+   IRB =  1e+30
+   RBM =  0
+   XTF =  10
+   VTF =  10
+   ITF =  1
+   PTF =  0
+   XCJC =  1
+   VJS =  0.75
+   MJS =  0
+   XTB =  0
+   EG =  1.11
+   XTI =  3
+   KF =  0
+   AF =  1
+   FC =  0.5
+   TNOM =  27
)

.MODEL BF199 NPN (
+   IS =  1e-14
+   BF =  100
+   BR =  1
+   RB =  0
+   RE =  0
+   RC =  0
+   CJS =  0
+   CJE =  2e-12
+   CJC =  2e-12
+   VJE =  0.75
+   VJC =  0.75
+   TF =  2.6126e-10
+   TR =  1e-08
+   MJE =  0.33
+   MJC =  0.33
+   VA =  100
+   ISE =  0
+   IKF =  0.01
+   NE =  1.5
+   NF =  1
+   NR =  1
+   VAR =  100
+   IKR =  0.01
+   ISC =  0
+   NC =  2
+   IRB =  1e+30
+   RBM =  0
+   XTF =  10
+   VTF =  10
+   ITF =  1
+   PTF =  0
+   XCJC =  1
+   VJS =  0.75
+   MJS =  0
+   XTB =  0
+   EG =  1.11
+   XTI =  3
+   KF =  0
+   AF =  1
+   FC =  0.5
+   TNOM =  27
)

.MODEL BF240 NPN (
+   IS =  1e-14
+   BF =  143.5
+   BR =  1
+   RB =  0
+   RE =  0
+   RC =  0
+   CJS =  0
+   CJE =  2e-12
+   CJC =  2e-12
+   VJE =  0.75
+   VJC =  0.75
+   TF =  9.4917e-10
+   TR =  1e-08
+   MJE =  0.33
+   MJC =  0.33
+   VA =  100
+   ISE =  0
+   IKF =  0.01
+   NE =  1.5
+   NF =  1
+   NR =  1
+   VAR =  100
+   IKR =  0.01
+   ISC =  0
+   NC =  2
+   IRB =  1e+30
+   RBM =  0
+   XTF =  10
+   VTF =  10
+   ITF =  1
+   PTF =  0
+   XCJC =  1
+   VJS =  0.75
+   MJS =  0
+   XTB =  0
+   EG =  1.11
+   XTI =  3
+   KF =  0
+   AF =  1
+   FC =  0.5
+   TNOM =  27
)

.MODEL BF241 NPN (
+   IS =  1e-14
+   BF =  80
+   BR =  1
+   RB =  0
+   RE =  0
+   RC =  0
+   CJS =  0
+   CJE =  2e-12
+   CJC =  2e-12
+   VJE =  0.75
+   VJC =  0.75
+   TF =  9.4917e-10
+   TR =  1e-08
+   MJE =  0.33
+   MJC =  0.33
+   VA =  100
+   ISE =  0
+   IKF =  0.01
+   NE =  1.5
+   NF =  1
+   NR =  1
+   VAR =  100
+   IKR =  0.01
+   ISC =  0
+   NC =  2
+   IRB =  1e+30
+   RBM =  0
+   XTF =  10
+   VTF =  10
+   ITF =  1
+   PTF =  0
+   XCJC =  1
+   VJS =  0.75
+   MJS =  0
+   XTB =  0
+   EG =  1.11
+   XTI =  3
+   KF =  0
+   AF =  1
+   FC =  0.5
+   TNOM =  27
)

.MODEL BF370 NPN (
+   IS =  1e-14
+   BF =  40
+   BR =  1
+   RB =  0
+   RE =  0
+   RC =  0
+   CJS =  0
+   CJE =  5.9686e-12
+   CJC =  5.3441e-12
+   VJE =  0.75
+   VJC =  0.75
+   TF =  1.7203e-10
+   TR =  1e-08
+   MJE =  0.33333
+   MJC =  0.33333
+   VA =  100
+   ISE =  0
+   IKF =  0.01
+   NE =  1.5
+   NF =  1
+   NR =  1
+   VAR =  100
+   IKR =  0.01
+   ISC =  0
+   NC =  2
+   IRB =  1e+30
+   RBM =  0
+   XTF =  2.3652
+   VTF =  4.7466
+   ITF =  1.5901
+   PTF =  0
+   XCJC =  1
+   VJS =  0.75
+   MJS =  0
+   XTB =  0
+   EG =  1.11
+   XTI =  3
+   KF =  0
+   AF =  1
+   FC =  0.5
+   TNOM =  27
)

.MODEL BF420 NPN (
+   IS =  1e-14
+   BF =  1500
+   BR =  0.1001
+   RB =  0
+   RE =  0
+   RC =  0
+   CJS =  0
+   CJE =  2e-12
+   CJC =  2e-12
+   VJE =  0.75
+   VJC =  0.75
+   TF =  2.0394e-09
+   TR =  1e-08
+   MJE =  0.33
+   MJC =  0.33
+   VA =  100
+   ISE =  5.3463e-14
+   IKF =  0.0527
+   NE =  1.2932
+   NF =  1
+   NR =  1
+   VAR =  100
+   IKR =  0.01001
+   ISC =  1e-14
+   NC =  2
+   IRB =  1e+30
+   RBM =  0
+   XTF =  3597.1
+   VTF =  1028.9
+   ITF =  6.0778
+   PTF =  0
+   XCJC =  1
+   VJS =  0.75
+   MJS =  0
+   XTB =  0
+   EG =  1.11
+   XTI =  3
+   KF =  0
+   AF =  1
+   FC =  0.5
+   TNOM =  27
)

.MODEL BF422 NPN (
+   IS =  1e-14
+   BF =  1500
+   BR =  0.1001
+   RB =  0
+   RE =  0
+   RC =  0
+   CJS =  0
+   CJE =  2e-12
+   CJC =  2e-12
+   VJE =  0.75
+   VJC =  0.75
+   TF =  2.0394e-09
+   TR =  1e-08
+   MJE =  0.33
+   MJC =  0.33
+   VA =  100
+   ISE =  5.3463e-14
+   IKF =  0.0527
+   NE =  1.2932
+   NF =  1
+   NR =  1
+   VAR =  100
+   IKR =  0.01001
+   ISC =  1e-14
+   NC =  2
+   IRB =  1e+30
+   RBM =  0
+   XTF =  3597.1
+   VTF =  1028.9
+   ITF =  6.0778
+   PTF =  0
+   XCJC =  1
+   VJS =  0.75
+   MJS =  0
+   XTB =  0
+   EG =  1.11
+   XTI =  3
+   KF =  0
+   AF =  1
+   FC =  0.5
+   TNOM =  27
)

.MODEL BF483 NPN (
+   IS =  1e-14
+   BF =  122.52
+   BR =  1
+   RB =  0
+   RE =  0
+   RC =  0
+   CJS =  0
+   CJE =  2e-12
+   CJC =  5.8702e-12
+   VJE =  0.75
+   VJC =  0.35
+   TF =  2.0436e-09
+   TR =  1e-08
+   MJE =  0.33
+   MJC =  0.41
+   VA =  100
+   ISE =  1e-14
+   IKF =  0.46966
+   NE =  1.3535
+   NF =  1
+   NR =  1
+   VAR =  100
+   IKR =  0.01
+   ISC =  0
+   NC =  2
+   IRB =  1e+30
+   RBM =  0
+   XTF =  0
+   VTF =  5.8168
+   ITF =  152.18
+   PTF =  0
+   XCJC =  1
+   VJS =  0.75
+   MJS =  0
+   XTB =  0
+   EG =  1.11
+   XTI =  3
+   KF =  0
+   AF =  1
+   FC =  0.5
+   TNOM =  27
)

.MODEL BF485 NPN (
+   IS =  1e-14
+   BF =  122.52
+   BR =  1
+   RB =  0
+   RE =  0
+   RC =  0
+   CJS =  0
+   CJE =  2e-12
+   CJC =  5.8702e-12
+   VJE =  0.75
+   VJC =  0.35
+   TF =  2.0436e-09
+   TR =  1e-08
+   MJE =  0.33
+   MJC =  0.41
+   VA =  100
+   ISE =  1e-14
+   IKF =  0.46966
+   NE =  1.3535
+   NF =  1
+   NR =  1
+   VAR =  100
+   IKR =  0.01
+   ISC =  0
+   NC =  2
+   IRB =  1e+30
+   RBM =  0
+   XTF =  0
+   VTF =  5.8168
+   ITF =  152.18
+   PTF =  0
+   XCJC =  1
+   VJS =  0.75
+   MJS =  0
+   XTB =  0
+   EG =  1.11
+   XTI =  3
+   KF =  0
+   AF =  1
+   FC =  0.5
+   TNOM =  27
)

.MODEL BF487 NPN (
+   IS =  1e-14
+   BF =  122.52
+   BR =  1
+   RB =  0
+   RE =  0
+   RC =  0
+   CJS =  0
+   CJE =  2e-12
+   CJC =  5.8702e-12
+   VJE =  0.75
+   VJC =  0.35
+   TF =  2.0436e-09
+   TR =  1e-08
+   MJE =  0.33
+   MJC =  0.41
+   VA =  100
+   ISE =  1e-14
+   IKF =  0.46966
+   NE =  1.3535
+   NF =  1
+   NR =  1
+   VAR =  100
+   IKR =  0.01
+   ISC =  0
+   NC =  2
+   IRB =  1e+30
+   RBM =  0
+   XTF =  0
+   VTF =  5.8168
+   ITF =  152.18
+   PTF =  0
+   XCJC =  1
+   VJS =  0.75
+   MJS =  0
+   XTB =  0
+   EG =  1.11
+   XTI =  3
+   KF =  0
+   AF =  1
+   FC =  0.5
+   TNOM =  27
)

.MODEL BF494 NPN (
+   IS =  3.0731e-10
+   BF =  140
+   BR =  1
+   RB =  0
+   RE =  0
+   RC =  0
+   CJS =  0
+   CJE =  2e-12
+   CJC =  2e-12
+   VJE =  0.75
+   VJC =  0.75
+   TF =  5.174e-10
+   TR =  1e-08
+   MJE =  0.33
+   MJC =  0.33
+   VA =  100
+   ISE =  0
+   IKF =  0.01
+   NE =  1.5
+   NF =  1
+   NR =  1
+   VAR =  100
+   IKR =  0.01
+   ISC =  0
+   NC =  2
+   IRB =  1e+30
+   RBM =  0
+   XTF =  10
+   VTF =  10
+   ITF =  1
+   PTF =  0
+   XCJC =  1
+   VJS =  0.75
+   MJS =  0
+   XTB =  0
+   EG =  1.11