
.MODEL 1N4733 D (
+   IS =  1.99e-13
+   RS =  6.47
+   CJO =  2.12e-09
+   VJ =  0.75
+   TT =  4.65e-07
+   M =  0.333
+   BV =  5.1
+   IBV =  0.049
+   N =  1
+   EG =  1.11
+   XTI =  3
+   KF =  0
+   AF =  1
+   FC =  0.5
+   TNOM =  27
)
