
.MODEL uA723_ZD2 D (
+   IS =  1e-14
+   RS =  0
+   CJO =  0
+   VJ =  0.75
+   TT =  0
+   M =  0.33
+   BV =  7.15
+   IBV =  0.0023
+   N =  1
+   EG =  1.11
+   XTI =  3
+   KF =  0
+   AF =  1
+   FC =  0.5
+   TNOM =  27
)

.MODEL uA723_ZD3 D (
+   IS =  1e-14
+   RS =  0
+   CJO =  0
+   VJ =  0.75
+   TT =  0
+   M =  0.33
+   BV =  6.2
+   IBV =  0.02
+   N =  1
+   EG =  1.11
+   XTI =  3
+   KF =  0
+   AF =  1
+   FC =  0.5
+   TNOM =  27
)
