* COPYRIGHT OF TEXAS INSTRUMENTS INCORPORATED
*
* UA741 operational amplifier "macromodel" subcircuit
* created using Parts release 4.01 on 07/05/89 at 09:09
* (REV N/A)
* connections:   non-inverting input
*                | inverting input
*                | | positive power supply
*                | | | negative power supply
*                | | | | output
*                | | | | |
.subckt UA741    1 2 3 4 5
*
  c1   11 12 4.664E-12
  c2    6  7 20.00E-12
  dc    5 53 dx
  de   54  5 dx
  dlp  90 91 dx
  dln  92 90 dx
  dp    4  3 dx
  egnd 99  0 poly(2) (3,0) (4,0) 0 .5 .5
  fb    7 99 poly(5) vb vc ve vlp vln 0 10.61E6 -10E6 10E6 10E6 -10E6
  ga	6  0 11 12 137.7E-6
  gcm	0  6 10 99 2.574E-9
  iee  10  4 dc 10.16E-6
  hlim 90  0 vlim 1K
  q1   11  2 13 qx
  q2   12  1 14 qx
  r2    6  9 100.0E3
  rc1   3 11 7.957E3
  rc2   3 12 7.957E3
  re1  13 10 2.740E3
  re2  14 10 2.740E3
  ree  10 99 19.69E6
  ro1   8  5 150
  ro2   7 99 150
  rp    3  4 18.11E3
  vb    9  0 dc 0
  vc	3 53 dc 2.600
  ve   54  4 dc 2.600
  vlim  7  8 dc 0
  vlp  91  0 dc 25
  vln   0 92 dc 25
.model dx D(Is=800.0E-18)
.model qx NPN(Is=800.0E-18 Bf=62.50)
.ends
* UA747 operational amplifier "macromodel" subcircuit
* created using Parts release 4.01 on 07/05/89 at 09:09
* (REV N/A)
* connections:   non-inverting input
*                | inverting input
*                | | positive power supply
*                | | | negative power supply
*                | | | | output
*                | | | | |
.subckt UA747	 1 2 3 4 5
*
  c1   11 12 4.664E-12
  c2    6  7 20.00E-12
  dc    5 53 dx
  de   54  5 dx
  dlp  90 91 dx
  dln  92 90 dx
  dp    4  3 dx
  egnd 99  0 poly(2) (3,0) (4,0) 0 .5 .5
  fb    7 99 poly(5) vb vc ve vlp vln 0 10.61E6 -10E6 10E6 10E6 -10E6
  ga	6  0 11 12 137.7E-6
  gcm	0  6 10 99 2.574E-9
  iee  10  4 dc 10.16E-6
  hlim 90  0 vlim 1K
  q1   11  2 13 qx
  q2   12  1 14 qx
  r2    6  9 100.0E3
  rc1   3 11 7.957E3
  rc2   3 12 7.957E3
  re1  13 10 2.740E3
  re2  14 10 2.740E3
  ree  10 99 19.69E6
  ro1   8  5 150
  ro2   7 99 150
  rp    3  4 18.11E3
  vb    9  0 dc 0
  vc	3 53 dc 2.600
  ve   54  4 dc 2.600
  vlim  7  8 dc 0
  vlp  91  0 dc 25
  vln   0 92 dc 25
.model dx D(Is=800.0E-18)
.model qx NPN(Is=800.0E-18 Bf=62.50)
.ends
* TLE2021 OPERATIONAL AMPLIFIER "MACROMODEL" SUBCIRCUIT
* CREATED USING PARTS RELEASE 4.01 ON 04/05/89 AT 10:16
* (REV N/A)      SUPPLY VOLTAGE: +/-15V
* CONNECTIONS:   NON-INVERTING INPUT
*                | INVERTING INPUT
*                | | POSITIVE POWER SUPPLY
*                | | | NEGATIVE POWER SUPPLY
*                | | | | OUTPUT
*                | | | | |
.SUBCKT TLE2021  1 2 3 4 5
*
  C1   11 12 6.244E-12
  C2 6  7 13.4E-12
  DC    5 53 DX
  DE   54  5 DX
  DLP  90 91 DX
  DLN  92 90 DX
  DP    4  3 DX
  EGND 99  0 POLY(2) (3,0) (4,0) 0 .5 .5
  FB    7 99 POLY(5) VB VC VE VLP VLN 0 547.3E6 -500E6 500E6 500E6 -500E6
  GA 6  0 11 12 188.5E-6
  GCM   0  6 10 99 335.2E-12
  IEE 3 10 DC 15.67E-6
  HLIM 90  0 VLIM 1K
  Q1   11  2 13 QX
  Q2   12  1 14 QX
  R2    6  9 100.0E3
  RC1 4 11 5.305E3
  RC2 4 12 5.305E3
  RE1  13 10 1.467E3
  RE2  14 10 1.467E3
  REE  10 99 14.76E6
  RO1   8  5 62
  RO2   7 99 63
  RP    3  4 160.9E3
  VB    9  0 DC 0
  VC    3 53 DC 1.400
  VE   54  4 DC 1.600
  VLIM  7  8 DC 0
  VLP  91  0 DC 3.200
  VLN   0 92 DC 3.200
.MODEL DX D(IS=800.0E-18)
.MODEL QX PNP(IS=800.0E-18 BF=270)
.ENDS
* TLE2021 OPERATIONAL AMPLIFIER "MACROMODEL" SUBCIRCUIT
* CREATED USING PARTS RELEASE 4.01 ON 07/05/90 AT 10:16
* REV (N/A)      SUPPLY VOLTAGE: +/-15V  
* CONNECTIONS:   NON-INVERTING INPUT
*                | INVERTING INPUT
*                | | POSITIVE POWER SUPPLY
*                | | | NEGATIVE POWER SUPPLY
*                | | | | OUTPUT
*                | | | | |
.SUBCKT TLE2021  1 2 3 4 5
*
  C1   11 12 6.244E-12
  C2 6  7 13.4E-12
  C3   87 0 10.64E-9
  CPSR 85 86 15.9E-9
  DCM+ 81 82 DX
  DCM- 83 81 DX
  DC    5 53 DX
  DE   54  5 DX
  DLP  90 91 DX
  DLN  92 90 DX
  DP    4  3 DX
  ECMR 84 99 (2 99) 1
  EGND 99  0 POLY(2) (3,0) (4,0) 0 .5 .5
  EPSR 85 0 POLY(1) (3,4) -60E-6  2.0E-6
  ENSE 89 2 POLY(1) (88,0) 120E-6  1
  FB 7 99 POLY(6) VB VC VE VLP VLN VPSR 0 547.3E6 -50E7 50E7 50E7 -50E7 547E6
  GA 6  0 11 12 188.5E-6
  GCM   0  6 10 99 335.2E-12
  GPSR 85 86 (85,86) 100E-6
  GRC1 4 11 (4,11) 1.885E-4
  GRC2 4 12 (4,12) 1.885E-4
  GRE1 13 10 (13,10) 6.82E-4
  GRE2 14 10 (14,10) 6.82E-4
  HLIM 90  0 VLIM 1K
  HCMR 80  1 POLY(2) VCM+ VCM- 0 1E2 1E2
  IRP 3  4 185E-6
  IEE 3 10 DC 15.67E-6
  IIO 2  0 .2E-9
  I1 88 0  1E-21
  Q1   11  89 13 QX
  Q2   12  80 14 QX
  R2 6  9 100.0E3
  RCM  84 81 1K
  REE  10 99 14.76E6
  RN1  87 0 2.55E8
  RN2  87 88 11.67E3
  RO1   8  5 62
  RO2   7 99 63
  VCM+ 82 99 13.3
  VCM- 83 99 -14.6
  VB    9  0 DC 0
  VC 3 53 DC 1.300
  VE   54  4 DC 1.500
  VLIM  7  8 DC 0
  VLP  91  0 DC 3.600
  VLN 0 92 DC 3.600
  VPSR 0 86 DC 0
.MODEL DX D(IS=800.0E-18)
.MODEL QX PNP(IS=800.0E-18 BF=270)
.ENDS
* TLE2021 OPERATIONAL AMPLIFIER "MACROMODEL" SUBCIRCUIT
* CREATED USING PARTS RELEASE 4.03 ON 07/23/90 AT 13:51
* REV (N/A)      SUPPLY VOLTAGE: 5V
* CONNECTIONS:   NON-INVERTING INPUT
*                | INVERTING INPUT
*                | | POSITIVE POWER SUPPLY
*                | | | NEGATIVE POWER SUPPLY
*                | | | | OUTPUT
*                | | | | |
.SUBCKT TLE2021  1 2 3 4 5
*
  C1   11 12 21.66E-12
  C2    6  7 30.00E-12
  DC    5 53 DX
  DE   54  5 DX
  DLP  90 91 DX
  DLN  92 90 DX
  DP    4  3 DX
  EGND 99  0 POLY(2) (3,0) (4,0) 0 .5 .5
  FB 7 99 POLY(5) VB VC VE VLP VLN 0 74.8E6 -10E6 10E6 10E6 -10E6
  GA    6  0 11 12 320.4E-6
  GCM   0  6 10 99 1.013E-9
  HLIM 90  0 VLIM 1K
  IEE   3 10 DC 24.05E-6
  Q1   11  2 13 QX
  Q2   12  1 14 QX
  R2    6  9 100.0E3
  RC1 4 11 3.121E3
  RC2 4 12 3.121E3
  RE1 13 10 963.4
  RE2 14 10 963.4
  REE  10 99 8.316E6
  RO1   8  5 63
  RO2   7 99 62
  RP  3 4 34.25E3
  VB    9  0 DC 0
  VC    3 53 DC 1.400
  VE   54  4 DC 1.400
  VLIM  7  8 DC 0
  VLP  91  0 DC 2.1
  VLN 0 92 DC 2.1
.MODEL DX D(IS=800.0E-18)
.MODEL QX PNP(IS=800.0E-18 BF=480)
.ENDS
* TLE2021 OPERATIONAL AMPLIFIER "MACROMODEL" SUBCIRCUIT
* CREATED USING PARTS RELEASE 4.03 ON 07/03/90 AT 13:51
* REV (N/A)      SUPPLY VOLTAGE: 5V
* CONNECTIONS:   NON-INVERTING INPUT
*                | INVERTING INPUT
*                | | POSITIVE POWER SUPPLY
*                | | | NEGATIVE POWER SUPPLY
*                | | | | OUTPUT
*                | | | | |
.SUBCKT TLE2021  1 2 3 4 5
*
  C1   11 12 21.66E-12
  C2    6  7 30.00E-12
  C3  87 0 10.64E-9
  CPSR 85 86 15.9E-9
  DCM+ 81 82 DX
  DCM- 83 81 DX
  DC    5 53 DX
  DE   54  5 DX
  DLP  90 91 DX
  DLN  92 90 DX
  DP    4  3 DX
  ECMR 84 99 (2,99) 1
  EGND 99  0 POLY(2) (3,0) (4,0) 0 .5 .5
  EPSR 85 0 POLY(1) (3,4) -16.22E-6  3.24E-6
  ENSE 89 2 POLY(1) (88,0) 120E-6  1
  FB 7 99 POLY(6) VB VC VE VLP VLN VPSR 0 74.8E6 -10E6 10E6 10E6 -10E6 74E6
  GA    6  0 11 12 320.4E-6
  GCM   0  6 10 99 1.013E-9
  GPSR 85 86 (85,86) 100E-6
  GRC1 4 11 (4,11) 3.204E-4
  GRC2 4 12 (4,12) 3.204E-4
  GRE1 13 10 (13,10) 1.038E-3
  GRE2 14 10 (14,10) 1.038E-3
  HLIM 90  0 VLIM 1K
  HCMR 80 1 POLY(2) VCM+ VCM- 0 1E2 1E2
  IRP 3 4 146E-6
  IEE   3 10 DC 24.05E-6
  IIO 2 0 .2E-9
  I1 88 0 1E-21
  Q1   11  89 13 QX
  Q2   12  80 14 QX
  R2    6  9 100.0E3
  RCM 84 81 1K
  REE  10 99 8.316E6
  RN1 87 0 2.55E8
  RN2 87 88 11.67E3
  RO1   8  5 63
  RO2   7 99 62
  VCM+ 82 99 1.0
  VCM- 83 99 -2.3
  VB    9  0 DC 0
  VC    3 53 DC 1.400
  VE   54  4 DC 1.400
  VLIM  7  8 DC 0
  VLP  91  0 DC 2.1
  VLN 0 92 DC 2.1
  VPSR 0 86 DC 0
.MODEL DX D(IS=800.0E-18)
.MODEL QX PNP(IS=800.0E-18 BF=480)
.ENDS
****************************************************************************
* TLE2021 operational amplifier "macromodel" subcircuit
* created using Parts release 4.01 on 04/05/89 at 10:16
* (REV N/A)
* connections:   non-inverting input
*                | inverting input
*                | | positive power supply
*                | | | negative power supply
*                | | | | output
*                | | | | |
.subckt TLE2021  1 2 3 4 5
*
  c1   11 12 6.244E-12
  c2	6  7 13.4E-12
  dc    5 53 dx
  de   54  5 dx
  dlp  90 91 dx
  dln  92 90 dx
  dp    4  3 dx
  egnd 99  0 poly(2) (3,0) (4,0) 0 .5 .5
  fb    7 99 poly(5) vb vc ve vlp vln 0 547.3E6 -500E6 500E6 500E6 -500E6
  ga	6  0 11 12 188.5E-6
  gcm   0  6 10 99 335.2E-12
  iee	3 10 dc 15.67E-6
  hlim 90  0 vlim 1K
  q1   11  2 13 qx
  q2   12  1 14 qx
  r2    6  9 100.0E3
  rc1	4 11 5.305E3
  rc2	4 12 5.305E3
  re1  13 10 1.467E3
  re2  14 10 1.467E3
  ree  10 99 14.76E6
  ro1   8  5 62
  ro2   7 99 63
  rp    3  4 160.9E3
  vb    9  0 dc 0
  vc    3 53 dc 1.400
  ve   54  4 dc 1.600
  vlim  7  8 dc 0
  vlp  91  0 dc 3.200
  vln   0 92 dc 3.200
.model dx D(Is=800.0E-18)
.model qx PNP(Is=800.0E-18 Bf=270)
.ends
* TLE2022 OPERATIONAL AMPLIFIER "MACROMODEL" SUBCIRCUIT
* CREATED USING PARTS RELEASE 4.01 ON 08/17/89 AT 12:52
* (REV N/A)      SUPPLY VOLTAGE: +/-15V
* CONNECTIONS:   NON-INVERTING INPUT
*                | INVERTING INPUT
*                | | POSITIVE POWER SUPPLY
*                | | | NEGATIVE POWER SUPPLY
*                | | | | OUTPUT
*                | | | | |
.SUBCKT TLE2022  1 2 3 4 5
*
  C1   11 12 6.814E-12
  C2    6  7 20.00E-12
  DC    5 53 DX
  DE   54  5 DX
  DLP  90 91 DX
  DLN  92 90 DX
  DP    4  3 DX
  EGND 99  0 POLY(2) (3,0) (4,0) 0 .5 .5
  FB    7 99 POLY(5) VB VC VE VLP VLN 0 45.47E6 -50E6 50E6 50E6 -50E6
  GA 6  0 11 12 377.9E-6
  GCM 0  6 10 99 7.84E-10
  IEE   3 10 DC 18.07E-6
  HLIM 90  0 VLIM 1K
  Q1   11  2 13 QX
  Q2   12  1 14 QX
  R2    6  9 100.0E3
  RC1   4 11 2.842E3
  RC2   4 12 2.842E3
  GE1  13 10 (10,13) 31.299E-3
  GE2  14 10 (10,14) 31.299E-3
  REE  10 99 11.07E6
  RO1   8  5 250
  RO2   7 99 250
  RP    3  4 137.2E3
  VB    9  0 DC 0
  VC 3 53 DC 1.300
  VE   54  4 DC 1.500
  VLIM  7  8 DC 0
  VLP  91  0 DC 3
  VLN   0 92 DC 3
.MODEL DX D(IS=800.0E-18)
.MODEL QX PNP(IS=800.0E-18 BF=257.1)
.ENDS
* TLE2022 OPERATIONAL AMPLIFIER "MACROMODEL" SUBCIRCUIT
* CREATED USING PARTS RELEASE 4.01 ON 06/20/90 AT 12:52
* REV (N/A)      SUPPLY VOLTAGE: +/-15V
* CONNECTIONS:   NON-INVERTING INPUT
*                | INVERTING INPUT
*                | | POSITIVE POWER SUPPLY
*                | | | NEGATIVE POWER SUPPLY
*                | | | | OUTPUT
*                | | | | |
.SUBCKT TLE2022  1 2 3 4 5
*
  C1   11 12 6.814E-12
  C2    6  7 20.00E-12
  C3   87  0 10.64E-9
  CPSR 85 86 15.9E-9
  DCM+ 81 82 DX
  DCM- 83 81 DX
  DC    5 53 DX
  DE   54  5 DX
  DLP  90 91 DX
  DLN  92 90 DX
  DP    4  3 DX
  ECMR 84 99 (2,99) 1
  EGND 99  0 POLY(2) (3,0) (4,0) 0 .5 .5
  EPSR 85 0 POLY(1) (3,4) -204E-6 6.8E-6
  ENSE 89 2 POLY(1) (88,0) 150E-6 1
  FB 7 99 POLY(6) VB VC VE VLP VLN VPSR 0 45.47E6 -50E6 50E6 50E6 -50E6 45E6
  GA 6  0 11 12 377.9E-6
  GCM 0  6 10 99 18.87E-10
  GPSR 85 86 (85,86) 100E-6
  GRC1 4 11 (4,11) 351.8E-6
  GRC2 4 12 (4,12) 351.8E-6
  GRE1 13 10 (10,13) 31.29E-3
  GRE2 14 10 (10,14) 31.29E-3
  HLIM 90  0 VLIM 1K
  HCMR 80  1 POLY(2) VCM+ VCM- 0 1E2 1E2
  IRP  3  4  217E-6
  IEE   3 10 DC 18.07E-6
  IIO  2  0  .5E-9
  I1   88 0  1E-21
  Q1   11  89 13 QX
  Q2   12  80 14 QX
  R2    6  9 100.0E3
  RCM  84  81 1K
  REE  10 99 11.07E6
  RN1  87 0 2.55E8
  RN2  87 88 11.67E3
  RO1   8  5 250
  RO2   7 99 250
  VCM+ 82 99 13.3
  VCM- 83 99 -14.6
  VB    9  0 DC 0
  VC 3 53 DC 1.300
  VE   54  4 DC 1.500
  VLIM  7  8 DC 0
  VLP  91  0 DC 3.6
  VLN 0 92 DC 3.6
  VPSR 0 86 DC 0
.MODEL DX D(IS=800.0E-18)
.MODEL QX PNP(IS=800.0E-18 BF=257.1)
.ENDS
* TLE2022 OPERATIONAL AMPLIFIER "MACROMODEL" SUBCIRCUIT
* CREATED USING PARTS RELEASE 4.03 ON 07/23/90 AT 09:15
* REV (N/A)      SUPPLY VOLTAGE: 5V
* CONNECTIONS:   NON-INVERTING INPUT
*                | INVERTING INPUT
*                | | POSITIVE POWER SUPPLY
*                | | | NEGATIVE POWER SUPPLY
*                | | | | OUTPUT
*                | | | | |
.SUBCKT TLE2022  1 2 3 4 5
*
  C1   11 12 15.09E-12
  C2    6  7 30.00E-12
  DC    5 53 DX
  DE   54  5 DX
  DLP  90 91 DX
  DLN  92 90 DX
  DP    4  3 DX
  EGND 99  0 POLY(2) (3,0) (4,0) 0 .5 .5
  FB 7 99 POLY(5) VB VC VE VLP VLN 0 15.27E6 -10E6 10E6 10E6 -10E6
  GA    6  0 11 12 414.7E-6
  GCM   0  6 10 99 4.147E-9
  HLIM 90  0 VLIM 1K
  IEE   3 10 DC 24.07E-6
  Q1   11  2 13 QX
  Q2   12  1 14 QX
  R2    6  9 100.0E3
  RC1  4 11 2.411E3
  RC2  4 12 2.411E3
  RE1 13 10 255.3
  RE2 14 10 255.3
  REE  10 99 8.309E6
  RO1   8  5 250
  RO2   7 99 250
  RP  3 4 28.4E3
  VB    9  0 DC 0
  VC    3 53 DC 1.400
  VE   54  4 DC 1.400
  VLIM  7  8 DC 0
  VLP  91  0 DC 2.1
  VLN 0 92 DC 2.1
.MODEL DX D(IS=800.0E-18)
.MODEL QX PNP(IS=800.0E-18 BF=342.9)
.ENDS
* TLE2022 OPERATIONAL AMPLIFIER "MACROMODEL" SUBCIRCUIT
* CREATED USING PARTS RELEASE 4.03 ON 07/05/90 AT 09:15
* REV (N/A)      SUPPLY VOLTAGE: 5V
* CONNECTIONS:   NON-INVERTING INPUT
*                | INVERTING INPUT
*                | | POSITIVE POWER SUPPLY
*                | | | NEGATIVE POWER SUPPLY
*                | | | | OUTPUT
*                | | | | |
.SUBCKT TLE2022  1 2 3 4 5
*
  C1   11 12 15.09E-12
  C2    6  7 30.00E-12
  C3  87 0 10.64E-9
  CPSR 85 86 15.9E-9
  DCM+ 81 82 DX
  DCM- 83 81 DX
  DC    5 53 DX
  DE   54  5 DX
  DLP  90 91 DX
  DLN  92 90 DX
  DP    4  3 DX
  ECMR 84 99 (2,99)  1
  EGND 99  0 POLY(2) (3,0) (4,0) 0 .5 .5
  EPSR 85 0 POLY(1) (3,4) -37.3E-6  7.46E-6
  ENSE 89 2 POLY(1) (88,0) 150E-6  1
  FB 7 99 POLY(6) VB VC VE VLP VLN VPSR 0 15.27E6 -10E6 10E6 10E6 -10E6 15E6
  GA    6  0 11 12 414.7E-6
  GCM   0  6 10 99 4.147E-9
  GPSR 85 86 (85,86) 100E-6
  GRC1 4 11 (4,11) 4.148E-4
  GRC2 4 12 (4,12) 4.148E-4
  GRE1 13 10 (13,10) 3.917E-3
  GRE2 14 10 (14,10) 3.917E-3
  HLIM 90  0 VLIM 1K
  HCMR 80 1 POLY(2) VCM+ VCM- 0 1E2 1E2
  IRP 3 4 176E-6
  IEE   3 10 DC 24.07E-6
  IIO 2 0 .5E-9
  I1 88 0 1E-21
  Q1   11  89 13 QX
  Q2   12  80 14 QX
  R2    6  9 100.0E3
  RCM 84 81 1K
  REE  10 99 8.309E6
  RN1 87 0 2.55E8
  RN2 87 88 15.67E3
  RO1   8  5 250
  RO2   7 99 250
  VCM+ 82 99 1.0
  VCM- 83 99 -2.3
  VB    9  0 DC 0
  VC    3 53 DC 1.400
  VE   54  4 DC 1.400
  VLIM  7  8 DC 0
  VLP  91  0 DC 2.1
  VLN 0 92 DC 2.1
  VPSR 0 86 DC 0
.MODEL DX D(IS=800.0E-18)
.MODEL QX PNP(IS=800.0E-18 BF=342.9)
.ENDS
* TLE2022 operational amplifier "macromodel" subcircuit
* created using Parts release 4.01 on 08/17/89 at 12:52
* (REV N/A)
* connections:   non-inverting input
*                | inverting input
*                | | positive power supply
*                | | | negative power supply
*                | | | | output
*                | | | | |
.subckt TLE2022  1 2 3 4 5
*
  c1   11 12 6.814E-12
  c2    6  7 20.00E-12
  dc    5 53 dx
  de   54  5 dx
  dlp  90 91 dx
  dln  92 90 dx
  dp    4  3 dx
  egnd 99  0 poly(2) (3,0) (4,0) 0 .5 .5
  fb    7 99 poly(5) vb vc ve vlp vln 0 45.47E6 -50E6 50E6 50E6 -50E6
  ga	6  0 11 12 377.9E-6
  gcm	0  6 10 99 7.84E-10
  iee   3 10 dc 18.07E-6
  hlim 90  0 vlim 1K
  q1   11  2 13 qx
  q2   12  1 14 qx
  r2    6  9 100.0E3
  rc1   4 11 2.842E3
  rc2   4 12 2.842E3
  re1  13 10 -31.95
  re2  14 10 -31.95
  ree  10 99 11.07E6
  ro1   8  5 250
  ro2   7 99 250
  rp    3  4 137.2E3
  vb    9  0 dc 0
  vc	3 53 dc 1.300
  ve   54  4 dc 1.500
  vlim  7  8 dc 0
  vlp  91  0 dc 3
  vln   0 92 dc 3
.model dx D(Is=800.0E-18)
.model qx PNP(Is=800.0E-18 Bf=257.1)
.ends
* TLE2024 OPERATIONAL AMPLIFIER "MACROMODEL" SUBCIRCUIT
* CREATED USING PARTS RELEASE 4.01 ON 08/17/89 AT 15:37
* (REV N/A)      SUPPLY VOLTAGE: +/-15V
* CONNECTIONS:   NON-INVERTING INPUT
*                | INVERTING INPUT
*                | | POSITIVE POWER SUPPLY
*                | | | NEGATIVE POWER SUPPLY
*                | | | | OUTPUT
*                | | | | |
.SUBCKT TLE2024  1 2 3 4 5
*
  C1   11 12 6.814E-12
  C2    6  7 20.00E-12
  DC    5 53 DX
  DE   54  5 DX
  DLP  90 91 DX
  DLN  92 90 DX
  DP    4  3 DX
  EGND 99  0 POLY(2) (3,0) (4,0) 0 .5 .5
  FB    7 99 POLY(5) VB VC VE VLP VLN 0 22.73E6 -20E6 20E6 20E6 -20E6
  GA 6  0 11 12 372.9E-6
  GCM   0  6 10 99 1.572E-9
  IEE   3 10 DC 18.10E-6
  HLIM 90  0 VLIM 1K
  Q1   11  2 13 QX
  Q2   12  1 14 QX
  R2    6  9 100.0E3
  RC1   4 11 2.842E3
  RC2   4 12 2.842E3
  GE1  13 10 (10,13) 31.347E-3
  GE2  14 10 (10,14) 31.347E-3
  REE  10 99 11.05E6
  RO1   8  5 250
  RO2   7 99 250
  RP    3  4 137.2E3
  VB    9  0 DC 0
  VC 3 53 DC 1.500
  VE   54  4 DC 1.500
  VLIM  7  8 DC 0
  VLP  91  0 DC 3
  VLN   0 92 DC 3
.MODEL DX D(IS=800.0E-18)
.MODEL QX PNP(IS=800.0E-18 BF=180)
.ENDS
* TLE2024 OPERATIONAL AMPLIFIER "MACROMODEL" SUBCIRCUIT
* CREATED USING PARTS RELEASE 4.01 ON 06/21/90 AT 15:37
* REV (N/A)      SUPPLY VOLTAGE: +/-15V
* CONNECTIONS:   NON-INVERTING INPUT
*                | INVERTING INPUT
*                | | POSITIVE POWER SUPPLY
*                | | | NEGATIVE POWER SUPPLY
*                | | | | OUTPUT
*                | | | | |
.SUBCKT TLE2024  1 2 3 4 5
*
  C1   11 12 6.814E-12
  C2    6  7 20.00E-12
  C3   87  0 10.64E-9
  CPSR 85 86 15.9E-9
  DCM+ 81 82 DX
  DCM- 83 81 DX
  DC    5 53 DX
  DE   54  5 DX
  DLP  90 91 DX
  DLN  92 90 DX
  DP    4  3 DX
  ECMR 84 99 (2,99) 1
  EGND 99  0 POLY(2) (3,0) (4,0) 0 .5 .5
  EPSR 85 9 POLY(1) (3,4) -134E-6  4.48E-6
  ENSE 89 2 POLY(1) (88,0) 300E-6  1
  FB 7 99 POLY(6) VB VC VE VLP VLN VPSR 0 22.75E6 -20E6 20E6 20E6 -20E6 16.9E6
  GA 6  0 11 12 372.9E-6
  GCM 0  6 10 99 3.144E-9
  GPSR 85 86 (85,86) 100E-6
  GRC1 4 11 (4,11) 3.518E-4
  GRC2 4 12 (4,12) 3.518E-4
  GRE1 13 10 (10,13) 31.34E-3
  GRE2 14 10 (10,14) 31.34E-3
  HLIM 90  0 VLIM 1K
  HCMR 80 1 POLY(2) VCM+ VCM- 0 1E2 1E2
  IRP  3 4 217E-6
  IEE   3 10 DC 18.10E-6
  IIO  2 0 .6E-9
  I1  88 0 1E-21
  Q1   11  89 13 QX
  Q2   12  80 14 QX
  R2    6  9 100.0E3
  RCM  84 81 1K
  REE  10 99 11.05E6
  RN1  87 0 2.55E8
  RN2  87 88 11.67E3
  RO1   8  5 250
  RO2   7 99 250
  VCM+ 82 99 13.3
  VCM- 83 99 -14.6
  VB    9  0 DC 0
  VC 3 53 DC 1.500
  VE   54  4 DC 1.500
  VLIM  7  8 DC 0
  VLP  91  0 DC 3.6
  VLN 0 92 DC 3.6
  VPSR 0 86 DC 0
.MODEL DX D(IS=800.0E-18)
.MODEL QX PNP(IS=800.0E-18 BF=180)
.ENDS
* TLE2024 OPERATIONAL AMPLIFIER "MACROMODEL" SUBCIRCUIT
* CREATED USING PARTS RELEASE 4.03 ON 07/24/90 AT 12:56
* REV (N/A)      SUPPLY VOLTAGE: 5V
* CONNECTIONS:   NON-INVERTING INPUT
*                | INVERTING INPUT
*                | | POSITIVE POWER SUPPLY
*                | | | NEGATIVE POWER SUPPLY
*                | | | | OUTPUT
*                | | | | |
.SUBCKT TLE2024  1 2 3 4 5
*
  C1   11 12 15.0E-12
  C2    6  7 30.00E-12
  DC    5 53 DX
  DE   54  5 DX
  DLP  90 91 DX
  DLN  92 90 DX
  DP    4  3 DX
  EGND 99  0 POLY(2) (3,0) (4,0) 0 .5 .5
  FB 7 99 POLY(5) VB VC VE VLP VLN 0 15.27E6 -10E6 10E6 10E6 -10E6
  GA    6  0 11 12 414.7E-6
  GCM   0  6 10 99 13.11E-9
  HLIM 90  0 VLIM 1K
  IEE   3 10 DC 24.09E-6
  Q1   11  2 13 QX
  Q2   12  1 14 QX
  R2    6  9 100.0E3
  RC1  4 11 2.411E3
  RC2  4 12 2.411E3
  RE1  13 10 255.1
  RE2  14 10 255.1
  REE  10 99 8.302E6
  RO1   8  5 250
  RO2   7 99 250
  RP  3 4 33.1E3
  VB    9  0 DC 0
  VC 3 53 DC 1.44
  VE   54  4 DC 1.34
  VLIM  7  8 DC 0
  VLP  91  0 DC 2.1
  VLN 0 92 DC 2.1
.MODEL DX D(IS=800.0E-18)
.MODEL QX PNP(IS=800.0E-18 BF=266.7)
.ENDS
* TLE2024 OPERATIONAL AMPLIFIER "MACROMODEL" SUBCIRCUIT
* CREATED USING PARTS RELEASE 4.03 ON 07/05/90 AT 12:56
* REV (N/A)      SUPPLY VOLTAGE: 5V
* CONNECTIONS:   NON-INVERTING INPUT
*                | INVERTING INPUT
*                | | POSITIVE POWER SUPPLY
*                | | | NEGATIVE POWER SUPPLY
*                | | | | OUTPUT
*                | | | | |
.SUBCKT TLE2024  1 2 3 4 5
*
  C1   11 12 15.0E-12
  C2    6  7 30.00E-12
  C3  87 0 10.64E-9
  CPSR 85 86 15.9E-9
  DCM+ 81 82 DX
  DCM- 83 81 DX
  DC    5 53 DX
  DE   54  5 DX
  DLP  90 91 DX
  DLN  92 90 DX
  DP    4  3 DX
  ECMR 84 99 (2,99)  1
  EGND 99  0 POLY(2) (3,0) (4,0) 0 .5 .5
  EPSR 85 0 POLY(1) (3,4) -52.7E-6  10.54E-6
  ENSE 89 2 POLY(1) (88,0) 150E-6  1
  FB 7 99 POLY(6) VB VC VE VLP VLN VPSR 0 15.27E6 -10E6 10E6 10E6 -10E6 15E6
  GA    6  0 11 12 414.7E-6
  GCM   0  6 10 99 13.11E-9
  GPSR 85 86 (85,86) 100E-6
  GRC1 4 11 (4,11) 4.148E-4
  GRC2 4 12 (4,12) 4.148E-4
  GRE1 13 10 (13,10) 3.92E-3
  GRE2 14 10 (14,10) 3.92E-3
  HLIM 90  0 VLIM 1K
  HCMR 80 1 POLY(2) VCM+ VCM- 0 1E2 1E2
  IRP 3 4 151E-6
  IEE   3 10 DC 24.09E-6
  IIO 2 0 .6E-9
  I1 88 0 1E-21
  Q1   11  89 13 QX
  Q2   12  80 14 QX
  R2    6  9 100.0E3
  RCM 84 81 1K
  REE  10 99 8.302E6
  RN1 87 0 2.55E8
  RN2 87 88 15.67E3
  RO1   8  5 250
  RO2   7 99 250
  VCM+ 82 99 1.0
  VCM- 83 99 -2.3
  VB    9  0 DC 0
  VC 3 53 DC 1.44
  VE   54  4 DC 1.34
  VLIM  7  8 DC 0
  VLP  91  0 DC 2.1
  VLN 0 92 DC 2.1
  VPSR 0 86 DC 0
.MODEL DX D(IS=800.0E-18)
.MODEL QX PNP(IS=800.0E-18 BF=266.7)
.ENDS
* TLE2024 operational amplifier "macromodel" subcircuit
* created using Parts release 4.01 on 08/17/89 at 15:37
* (REV N/A)
* connections:   non-inverting input
*                | inverting input
*                | | positive power supply
*                | | | negative power supply
*                | | | | output
*                | | | | |
.subckt TLE2024  1 2 3 4 5
*
  c1   11 12 6.814E-12
  c2    6  7 20.00E-12
  dc    5 53 dx
  de   54  5 dx
  dlp  90 91 dx
  dln  92 90 dx
  dp    4  3 dx
  egnd 99  0 poly(2) (3,0) (4,0) 0 .5 .5
  fb    7 99 poly(5) vb vc ve vlp vln 0 22.73E6 -20E6 20E6 20E6 -20E6
  ga	6  0 11 12 372.9E-6
  gcm   0  6 10 99 1.572E-9
  iee   3 10 dc 18.10E-6
  hlim 90  0 vlim 1K
  q1   11  2 13 qx
  q2   12  1 14 qx
  r2    6  9 100.0E3
  rc1   4 11 2.842E3
  rc2   4 12 2.842E3
  re1  13 10 -31.90
  re2  14 10 -31.90
  ree  10 99 11.05E6
  ro1   8  5 250
  ro2   7 99 250
  rp    3  4 137.2E3
  vb    9  0 dc 0
  vc	3 53 dc 1.500
  ve   54  4 dc 1.500
  vlim  7  8 dc 0
  vlp  91  0 dc 3
  vln   0 92 dc 3
.model dx D(Is=800.0E-18)
.model qx PNP(Is=800.0E-18 Bf=180)
.ends
* TLE2027 OPERATIONAL AMPLIFIER "MACROMODEL" SUBCIRCUIT
* CREATED USING PARTS RELEASE 4.01 ON 02/15/90 AT 00:39
* REV (N/A)      SUPPLY VOLTAGE: +/-15V
* CONNECTIONS:   NON-INVERTING INPUT
*                | INVERTING INPUT
*                | | POSITIVE POWER SUPPLY
*                | | | NEGATIVE POWER SUPPLY
*                | | | | OUTPUT
*                | | | | |
.SUBCKT TLE2027  1 2 3 4 5
*
  C1   11 12 4.003E-12
  C2    6  7 20.00E-12
  DC    5 53 DX
  DE   54  5 DX
  DLP  90 91 DX
  DLN  92 90 DX
  DP    4  3 DX
  EGND 99  0 POLY(2) (3,0) (4,0) 0 .5 .5
  FB    7 99 POLY(5) VB VC VE VLP VLN 0 954.8E6 -1E9 1E9 1E9 -1E9
  GA 6  0 11 12 2.062E-3
  GCM   0  6 10 99 531.3E-12
  IEE  10  4 DC 56.01E-6
  HLIM 90  0 VLIM 1K
  Q1   11  2 13 QX
  Q2   12  1 14 QX
  R2    6  9 100.0E3
  RC1   3 11 530.5
  RC2   3 12 530.5
  GE1  13 10 (10,13) 2.543E-3
  GE2  14 10 (10,14) 2.543E-3
  REE  10 99 3.571E6
  RO1   8  5 25
  RO2   7 99 25
  RP    3  4 8.013E3
  VB    9  0 DC 0
  VC    3 53 DC 2.400
  VE   54  4 DC 2.100
  VLIM  7  8 DC 0
  VLP  91  0 DC 40
  VLN   0 92 DC 40
.MODEL DX D(IS=800.0E-18)
.MODEL QX NPN(IS=800.0E-18 BF=7.000E3)
.ENDS
* TLE2027 OPERATIONAL AMPLIFIER "MACROMODEL" SUBCIRCUIT
* CREATED USING PARTS RELEASE 4.03 ON 06/25/90 AT 09:18
* REV (N/A)      SUPPLY VOLTAGE: +/-15V
* CONNECTIONS:   NON-INVERTING INPUT
*                | INVERTING INPUT
*                | | POSITIVE POWER SUPPLY
*                | | | NEGATIVE POWER SUPPLY
*                | | | | OUTPUT
*                | | | | |
.SUBCKT TLE2027  1 2 3 4 5
*
  C1   11 12 10.51E-12
  C2    6  7 50.00E-12
  C3   87 0 134E-9
  CPSR 85 86 1.99E-6
  DCM+ 81 82 DX
  DCM- 83 81 DX
  DC    5 53 DX
  DE   54  5 DX
  DLP  90 91 DX
  DLN  92 90 DX
  DP    4  3 DX
  ECMR 84 99 (2,99) 1
  EGND 99  0 POLY(2) (3,0) (4,0) 0 .5 .5
  EPSR 85 0 POLY(1) (3,4) -60E-6  2E-6
  ENSE 89  2 POLY(1) (88,0) 20E-6  1
  FB 7 99 POLY(6) VB VC VE VLP VLN VPSR 0 345E6 -30E6 30E6 30E6 -30E6 555E6
  GA    6  0 11 12 5.184E-3
  GCM   0  6 10 99 1.461E-9
  GPSR 85 86 (85,86) 100E-6
  GRC1 3  11 (3,11) 5.184E-3
  GRC2 3  12 (3,12) 5.184E-3
  GRE1 13 10 (10,13) 5.666E-3
  GRE2 14 10 (10,14) 5.666E-3
  HLIM 90  0 VLIM 1K
  HCMR 80 1 POLY(2) VCM+ VCM- 0 1E2 1E2
  IRP  3 4 3.66E-3
  IEE  10  4 DC 140.0E-6
  IIO  2 0 6E-9
  I1   88 0 1E-21
  Q1   11  89 13 QX
  Q2   12  80 14 QX
  R2    6  9 100.0E3
  RCM  84 81 1K
  REE  10 99 1.428E6
  RN1  87 0 8.75E7
  RN2  87 88 4.75E0
  RO1   8  5 25
  RO2   7 99 26
  VCM+ 82 99 12.4
  VCM- 83 99 -12.4
  VB    9  0 DC 0
  VC    3 53 DC 2.500
  VE   54  4 DC 2.200
  VLIM  7  8 DC 0
  VLP  91  0 DC 40
  VLN   0 92 DC 40
  VPSR 0 86 DC 0
.MODEL DX D(IS=800.0E-18)
.MODEL QX NPN(IS=800.0E-18 BF=4.667E3)
.ENDS
* TLE2037 OPERATIONAL AMPLIFIER "MACROMODEL" SUBCIRCUIT
* CREATED USING PARTS RELEASE 4.01 ON 02/16/90 AT 15:22
* REV (N/A)      SUPPLY VOLTAGE: +/-15V
* CONNECTIONS:   NON-INVERTING INPUT
*                | INVERTING INPUT
*                | | POSITIVE POWER SUPPLY
*                | | | NEGATIVE POWER SUPPLY
*                | | | | OUTPUT
*                | | | | |
.SUBCKT TLE2037  1 2 3 4 5
*
  C1   11 12 14.74E-12
  C2    6  7 7.500E-12
  DC    5 53 DX
  DE   54  5 DX
  DLP  90 91 DX
  DLN  92 90 DX
  DP    4  3 DX
  EGND 99  0 POLY(2) (3,0) (4,0) 0 .5 .5
  FB 7 99 POLY(5) VB VC VE VLP VLN 0 923.4E6 -800E6 800E6 800E6 -800E6
  GA    6  0 11 12 2.121E-3
  GCM   0  6 10 99 597.7E-12
  IEE  10  4 DC 56.26E-6
  HLIM 90  0 VLIM 1K
  Q1   11  2 13 QX
  Q2   12  1 14 QX
  R2    6  9 100.0E3
  RC1   3 11 471.5
  RC2   3 12 471.5
  GE1  13 10 (10,13) 2.232E-3
  GE2  14 10 (10,14) 2.232E-3
  REE  10 99 3.555E6
  RO1   8  5 25
  RO2   7 99 25
  RP    3  4 8.013E3
  VB    9  0 DC 0
  VC    3 53 DC 2.400
  VE   54  4 DC 2.100
  VLIM  7  8 DC 0
  VLP  91  0 DC 40
  VLN   0 92 DC 40
.MODEL DX D(IS=800.0E-18)
.MODEL QX NPN(IS=800.0E-18 BF=7.031E3)
.ENDS
* TLE2037 OPERATIONAL AMPLIFIER "MACROMODEL" SUBCIRCUIT
* CREATED USING PARTS RELEASE 4.03 ON 06/25/90 AT 13:17
* REV (N/A)      SUPPLY VOLTAGE: +/-15V
* CONNECTIONS:   NON-INVERTING INPUT
*                | INVERTING INPUT
*                | | POSITIVE POWER SUPPLY
*                | | | NEGATIVE POWER SUPPLY
*                | | | | OUTPUT
*                | | | | |
.SUBCKT TLE2037  1 2 3 4 5
*
  C1   11 12 75E-12
  C2    6  7 50.00E-12
  C3   87  0 134E-9
  CPSR 85 86 1.99E-6
  DCM+ 81 82 DX
  DCM- 83 81 DX
  DC    5 53 DX
  DE   54  5 DX
  DLP  90 91 DX
  DLN  92 90 DX
  DP    4  3 DX
  ECMR 84 99 (2,99) 1
  EGND 99  0 POLY(2) (3,0) (4,0) 0 .5 .5
  EPSR 85 0 POLY(1) (3,4) -60E-6 2E-6
  ENSE 89 2 POLY(1) (88,0) 20E-6  1
  FB 7 99 POLY(6) VB VC VE VLP VLN VPSR 0 68.25E6 -60E6 60E6 60E6 -60E6 57.2E7
  GA    6  0 11 12 26.08E-3
  GCM   0  6 10 99 7.349E-9
  GPSR 85 86 (85,86) 100E-6
  GRC1 3 11 (3,11) 26.08E-3
  GRC2 3 12 (3,12) 26.08E-3
  GRE1 13 10 (10,13) 10.04E-3
  GRE2 14 10 (10,14) 10.04E-3
  HLIM 90  0 VLIM 1K
  HCMR 80 1 POLY(2) VCM+ VCM- 0 1E2 1E2
  IRP 3 4 3.43E-3
  IEE  10  4 DC 375.0E-6
  IIO  2 0 6E-9
  I1 88 0 1E-21
  Q1   11  89 13 QX
  Q2   12  80 14 QX
  R2    6  9 100.0E3
  RCM  84 81 1K
  REE  10 99 533.3E3
  RN1  87 0 8.75E7
  RN2  87 88 235
  RO1   8  5 25
  RO2   7 99 26
  VCM+ 82 99 12.4
  VCM- 83 99 -12.4
  VB    9  0 DC 0
  VC    3 53 DC 2.500
  VE   54  4 DC 2.200
  VLIM  7  8 DC 0
  VLP  91  0 DC 40
  VLN   0 92 DC 40
  VPSR 0 86 DC 0
.MODEL DX D(IS=800.0E-18)
.MODEL QX NPN(IS=800.0E-18 BF=12.50E3)
.ENDS
* TLE2061 OPERATIONAL AMPLIFIER "MACROMODEL" SUBCIRCUIT
* CREATED USING PARTS RELEASE 4.03 ON 07/24/90 AT 10:58
* REV (N/A)      SUPPLY VOLTAGE: +/-5V
* CONNECTIONS:   NON-INVERTING INPUT
*                | INVERTING INPUT
*                | | POSITIVE POWER SUPPLY
*                | | | NEGATIVE POWER SUPPLY
*                | | | | OUTPUT
*                | | | | |
.SUBCKT TLE2061  1 2 3 4 5
*
  C1   11 12 3.373E-12
  C2    6  7 30.00E-12
  DC    5 53 DX
  DE   54  5 DX
  DLP  90 91 DX
  DLN  92 90 DX
  DP    4  3 DX
  EGND 99  0 POLY(2) (3,0) (4,0) 0 .5 .5
  FB 7 99 POLY(5) VB VC VE VLP VLN 0 1.545E6 -2E6 2E6 2E6 -2E6
  GA    6  0 11 12 188.5E-6
  GCM 0  6 10 99 30.28E-9
  HLIM 90  0 VLIM 1K
  ISS   3 10 DC 102.0E-6
  J1   11  2 10 JX
  J2   12  1 10 JX
  R2    6  9 100.0E3
  RD1 4 11 5.305E3
  RD2 4 12 5.305E3
  RO1   8  5 140
  RO2   7 99 140
  RP  3 4 56.18E3
  RSS  10 99 1.961E6
  VB    9  0 DC 0
  VC 3 53 DC 1.95
  VE   54  4 DC 1.75
  VLIM  7  8 DC 0
  VLP  91  0 DC 50
  VLN   0 92 DC 50
.MODEL DX D(IS=800.0E-18)
.MODEL JX PJF(IS=1.500E-12 BETA=696.7E-6 VTO=-.241)
.ENDS
* TLE2061 OPERATIONAL AMPLIFIER "MACROMODEL" SUBCIRCUIT
* CREATED USING PARTS RELEASE 4.03 ON 07/06/90 AT 10:58
* REV (N/A)      SUPPLY VOLTAGE: +/-5V
* CONNECTIONS:   NON-INVERTING INPUT
*                | INVERTING INPUT
*                | | POSITIVE POWER SUPPLY
*                | | | NEGATIVE POWER SUPPLY
*                | | | | OUTPUT
*                | | | | |
.SUBCKT TLE2061  1 2 3 4 5
*
  C1   11 12 3.373E-12
  C2    6  7 30.00E-12
  CPSR 85 86 79.6E-9
  DCM+ 81 82 DX
  DCM- 83 81 DX
  DC    5 53 DX
  DE   54  5 DX
  DLP  90 91 DX
  DLN  92 90 DX
  DP    4  3 DX
  ECMR 84 99 (2,99)  1
  EGND 99  0 POLY(2) (3,0) (4,0) 0 .5 .5
  EPSR 85 0 POLY(1) (3,4) -841E-6  84.1E-6